 ****** HSPICE -- J-2014.09-SP1-2 64-BIT (Jan 29 2015) win64 ******             
  Copyright (C) 2014 Synopsys, Inc. All Rights Reserved.                        
  Unpublished-rights reserved under US copyright laws.
  This program is protected by law and is subject to the
  terms and conditions of the license agreement from Synopsys.
  Use of this program is your acceptance to be bound by the
  license agreement. HSPICE is the trademark of Synopsys, Inc.
  Input File: .\template\default.sp                                             
  Command line options: -i ./template/default.sp -o ./template/default
  lic:  
  lic: FLEXlm: v10.9.8 
  lic: USER:   odaira               HOSTNAME: odaira 
  lic: HOSTID: 4437e6e4de4c         PID:      4824 
  lic: Using FLEXlm license file: 
  lic: C:\synopsys\Hspice_J-2014.09-SP1-2\key 
  lic: Checkout 1 hspice 
  lic: License/Maintenance for hspice will expire on 31-mar-2016/2014.09 
  lic: 78(in_use)/180(total) FLOATING license(s) on SERVER C:\synopsys\Hspice_J-
 2014.09-SP1-2\key 
  lic:   
 Init: read install configuration file: C:\synopsys\Hspice_J-2014.09-SP1-2\meta.cfg

 **warning** It is recommended that you set start explicitly:
             .TRAN tstep tstop START=val


  **info** (.\template\default.sp:27) DC voltage reset to initial transient source value              in source        0:vs1                 new dc=  0.0000D+00
  
      
 *****************************************************************
 ******  option summary
 ******
 runlvl  = 3         bypass  = 2         
 **info** dc convergence successful at Newton-Raphson method 
1****** HSPICE -- J-2014.09-SP1-2 64-BIT (Jan 29 2015) win64 ******             
 ******  
 ******************************** stl designer 2 t element template ver 2.3 *****

 ****** operating point information tnom=  25.000 temp=  25.000 ******
 ****** operating point status is voltage   simulation time is     0.     
    node    =voltage      node    =voltage      node    =voltage      node    =voltage      node    =voltage

 +0:101     =   0.      0:102     =   0.      0:1001    =   0.      0:1002    =   0.      0:optpt1  =   0.     
 +0:optpt2  =   0.      0:optpt3  =   0.      0:vspt1   =   0.      0:vspt2   =   0.      0:vspt3   =   0.     

 ******  
 ******************************** stl designer 2 t element template ver 2.3 *****

 ****** transient analysis tnom=  25.000 temp=  25.000 ******
x

        time    voltage      voltage      voltage      voltage      voltage      voltage    
                  optpt1       optpt2       optpt3        vspt1        vspt2        vspt3   
   20.00000n    196.8136m      1.1026     963.2903m      0.           1.0000       1.0000   
   20.05000n    146.3107m      1.0936     982.7245m      0.           1.0000       1.0000   
   20.10000n    107.4894m      1.0801     997.9362m      0.           1.0000       1.0000   
   20.15000n     75.0672m      1.0640       1.0116       0.           1.0000       1.0000   
   20.20000n     50.1461m      1.0451       1.0238       0.         965.3946m      1.0000   
   20.25000n     30.7110m      1.0241       1.0348       0.         905.4810m      1.0000   
   20.30000n     14.3133m    999.5473m      1.0467       0.         756.6337m      1.0000   
   20.35000n    137.0266u    972.4021m      1.0592       0.         542.7458m      1.0000   
   20.40000n    -11.2709m    936.5696m      1.0717       0.         347.9444m      1.0000   
   20.45000n    -20.6543m    894.3838m      1.0841       0.         167.1019m      1.0000   
   20.50000n    -25.5581m    841.7061m      1.0935       0.          61.6256m      1.0000   
   20.55000n    -27.1858m    781.3554m      1.1007       0.          11.2679m      1.0000   
   20.60000n    -22.1846m    712.9831m      1.1005       0.           0.           1.0000   
   20.65000n    -15.2725m    642.2985m      1.0981       0.           0.           1.0000   
   20.70000n     -3.8541m    572.2017m      1.0870       0.           0.           1.0000   
   20.75000n      8.8633m    502.2745m      1.0734       0.           0.           1.0000   
   20.80000n     22.4749m    439.6648m      1.0556       0.           0.         972.4363m  
   20.85000n     36.3443m    379.1645m      1.0366       0.           0.         936.9271m  
   20.90000n     50.2883m    328.8804m      1.0132       0.           0.         811.6371m  
   20.95000n     64.2538m    281.5411m    988.5648m      0.           0.         660.4672m  
   21.00000n     79.1390m    241.5515m    961.9784m      0.           0.         460.6128m  
   21.05000n     98.7443m    208.1905m    919.8436m      0.           0.         282.2839m  
   21.10000n    123.7570m    177.4936m    873.9256m      0.           0.         128.2507m  
   21.15000n    152.2874m    148.4566m    817.8751m      0.           0.          45.4866m  
   21.20000n    182.6576m    120.2878m    756.5248m      0.           0.           0.       
   21.25000n    212.7033m     93.4974m    685.8402m      0.           0.           0.       
   21.30000n    235.9070m     69.3037m    615.5877m      0.           0.           0.       
   21.35000n    258.5782m     45.3146m    545.3727m      0.           0.           0.       
   21.40000n    269.5938m     26.4440m    480.8007m      0.           0.           0.       
   21.45000n    279.5969m      8.0180m    416.7189m      0.           0.           0.       
   21.50000n    277.5289m     -5.1382m    363.4411m      0.           0.           0.       
   21.55000n    274.4123m    -17.8366m    311.1018m      0.           0.           0.       
   21.60000n    271.4669m    -28.5453m    269.5367m     53.3560m      0.           0.       
   21.65000n    268.5364m    -39.0813m    228.9077m    111.3472m      0.           0.       
   21.70000n    307.2693m    -52.0927m    197.0905m    346.0000m      0.           0.       
   21.75000n    349.6217m    -65.3191m    166.0389m    596.0000m      0.           0.       
   21.80000n    444.1160m    -78.9340m    137.8740m    792.6440m      0.           0.       
   21.85000n    543.1400m    -92.5826m    109.9599m    984.6528m      0.           0.       
   21.90000n    641.7899m    -99.6530m     84.7925m      1.0000       0.           0.       
   21.95000n    732.2787m   -103.6017m     60.7919m      1.0000       0.           0.       
   22.00000n    797.4170m    -99.5974m     39.6859m      1.0000       0.           0.       
   22.05000n    855.2058m    -92.9640m     20.0963m      1.0000       0.           0.       
   22.10000n    895.3660m    -80.0243m      4.1443m      1.0000       0.           0.       
   22.15000n    926.8056m    -63.9941m     -9.5657m      1.0000      12.0325m      0.       
   22.20000n    951.1441m    -45.4474m    -21.4500m      1.0000      33.8631m      0.       
   22.25000n    970.8568m    -24.2187m    -33.1494m      1.0000     115.4643m      0.       
   22.30000n    986.8029m   -806.0169u    -44.6982m      1.0000     245.7363m      0.       
   22.35000n      1.0007      28.4644m    -57.2592m      1.0000     429.9675m      0.       
   22.40000n      1.0128      62.5047m    -70.6446m      1.0000     658.1369m      0.       
   22.45000n      1.0215     106.6896m    -82.6916m      1.0000     826.5357m      0.       
   22.50000n      1.0272     159.1352m    -93.6487m      1.0000     946.2637m      0.       
   22.55000n      1.0279     219.9812m    -99.3522m      1.0000       1.0000       0.       
   22.60000n      1.0244     287.6674m   -100.7777m      1.0000       1.0000       0.       
   22.65000n      1.0153     358.3745m    -94.9398m      1.0000       1.0000       0.       
   22.70000n      1.0045     430.0196m    -86.8469m      1.0000       1.0000       0.       
   22.75000n    991.5091m    497.3127m    -72.5480m      1.0000       1.0000       9.7627m  
   22.80000n    977.8439m    563.2546m    -56.3223m      1.0000       1.0000      22.5564m  
   22.85000n    964.2286m    620.0867m    -36.1494m      1.0000       1.0000      90.7415m  
   22.90000n    950.6289m    674.0904m    -14.7510m      1.0000       1.0000     176.1238m  
   22.95000n    935.6052m    718.4760m     12.4861m      1.0000       1.0000     335.3855m  
   23.00000n    920.1394m    759.8755m     41.5359m      1.0000       1.0000     517.5845m  
   23.05000n    900.3260m    792.8410m     76.1645m      1.0000       1.0000     742.2873m  
   23.10000n    874.0290m    822.4507m    126.8287m      1.0000       1.0000     872.5112m  
   23.15000n    847.0875m    851.7946m    179.2743m      1.0000       1.0000     992.2392m  
   23.20000n    815.7749m    879.8501m    245.9727m      1.0000       1.0000       1.0000   
   23.25000n    785.7201m    907.1846m    314.2412m      1.0000       1.0000       1.0000   
   23.30000n    760.4498m    932.5462m    385.8862m      1.0000       1.0000       1.0000   
   23.35000n    740.7579m    955.3555m    455.2535m      1.0000       1.0000       1.0000   
   23.40000n    727.1381m    975.3864m    522.1414m      1.0000       1.0000       1.0000   
   23.45000n    720.0429m    992.3881m    583.8083m      1.0000       1.0000       1.0000   
   23.50000n    720.0498m      1.0061     639.7921m      1.0000       1.0000       1.0000   
   23.55000n    725.2931m      1.0183     689.7938m      1.0000       1.0000       1.0000   
   23.60000n    736.2363m      1.0289     733.2838m      1.0000       1.0000       1.0000   
   23.65000n    730.3817m      1.0404     771.2049m    885.9716m      1.0000       1.0000   
   23.70000n    706.2427m      1.0527     803.0640m    647.8231m      1.0000       1.0000   
   23.75000n    650.5641m      1.0661     833.5043m    404.0000m      1.0000       1.0000   
   23.80000n    560.5544m      1.0805     862.4002m    154.0000m      1.0000       1.0000   
   23.85000n    457.2900m      1.0922     889.9211m     53.3129m      1.0000       1.0000   
   23.90000n    351.8325m      1.1025     916.8280m      0.           1.0000       1.0000   
   23.95000n    269.7496m      1.1043     940.7598m      0.           1.0000       1.0000   
   24.00000n    199.7387m      1.1018     962.6318m      0.           1.0000       1.0000   
   24.05000n    146.2956m      1.0934     981.6768m      0.           1.0000       1.0000   
   24.10000n    105.3860m      1.0805     997.3954m      0.           1.0000       1.0000   
   24.15000n     73.7378m      1.0642       1.0107       0.           1.0000       1.0000   
   24.20000n     49.3030m      1.0456       1.0225       0.         980.2965m      1.0000   
   24.25000n     30.1983m      1.0255       1.0334       0.         946.0338m      1.0000   
   24.30000n     13.9011m      1.0022       1.0453       0.         793.5421m      1.0000   
   24.35000n   -321.5851u    976.5111m      1.0579       0.         553.6885m      1.0000   
   24.40000n    -12.2310m    941.8649m      1.0711       0.         336.3064m      1.0000   
   24.45000n    -22.4310m    900.5731m      1.0846       0.         135.5291m      1.0000   
   24.50000n    -27.6994m    846.6567m      1.0949       0.          40.9815m      1.0000   
   24.55000n    -30.1670m    786.1273m      1.1030       0.           0.           1.0000   
   24.60000n    -23.8355m    715.3036m      1.1010       0.           0.           1.0000   
   24.65000n    -17.1366m    644.4354m      1.0984       0.           0.           1.0000   
   24.70000n     -4.4164m    572.8409m      1.0868       0.           0.           1.0000   
   24.75000n      8.5376m    502.9163m      1.0739       0.           0.         997.3211m  
   24.80000n     22.3803m    439.3395m      1.0562       0.           0.         984.4590m  
   24.85000n     36.0399m    378.4987m      1.0375       0.           0.         951.0650m  
   24.90000n     49.0037m    328.0579m      1.0153       0.           0.         839.6247m  
   24.95000n     62.1382m    279.9799m    992.3129m      0.           0.         701.4383m  
   25.00000n     75.9217m    240.8832m    966.6605m      0.           0.         461.5847m  
   25.05000n     94.8952m    207.8778m    925.8540m      0.           0.         260.5110m  
   25.10000n    121.2580m    177.9721m    878.1554m      0.           0.         113.6440m  
   25.15000n    150.5217m    149.0730m    821.9506m      0.           0.          31.0681m  
   25.20000n    182.1096m    120.9804m    758.9310m      0.           0.           0.       
   25.25000n    213.0314m     93.5509m    688.1072m      0.           0.           0.       
   25.30000n    237.0924m     68.6874m    616.7419m      0.           0.           0.       
   25.35000n    260.7730m     43.9715m    545.3434m      0.           0.           0.       
   25.40000n    271.8326m     25.2533m    480.0716m      0.           0.           0.       
   25.45000n    282.5489m      6.6983m    414.9665m      0.           0.           0.       
   25.50000n    279.8944m     -5.4532m    361.6997m      0.           0.           0.       
   25.55000n    276.8763m    -17.4304m    308.7550m      0.           0.           0.       
   25.60000n    272.4000m    -27.3441m    268.2189m     49.9512m      0.           0.       
   25.65000n    267.8840m    -37.2017m    228.0204m    101.2610m      0.           0.       
   25.70000n    306.6276m    -50.9663m    197.1372m    346.0000m      0.           0.       
   25.75000n    346.5477m    -64.8373m    166.5075m    596.0000m      0.           0.       
   25.80000n    443.9104m    -79.6169m    138.4119m    796.0488m      0.           0.       
   25.85000n    542.8355m    -94.4213m    110.3852m    994.7390m      0.           0.       
   25.90000n    642.9756m   -101.8257m     84.6128m      1.0000       0.           0.       
   25.95000n    733.1468m   -105.8632m     60.1160m      1.0000       0.           0.       
   26.00000n    799.5577m   -102.3805m     38.5042m      1.0000       0.           0.       
   26.05000n    855.6762m    -95.1368m     19.1667m      1.0000       0.           0.       
   26.10000n    896.6289m    -82.3511m      3.1805m      1.0000       0.           0.       
   26.15000n    926.2679m    -65.3941m     -9.5642m      1.0000      11.8180m      0.       
   26.20000n    950.7473m    -46.5347m    -20.8306m      1.0000      29.0255m      0.       
   26.25000n    969.5866m    -24.4819m    -32.0538m      1.0000     115.4177m      0.       
   26.30000n    985.8538m   -972.8432u    -43.2573m      1.0000     233.3613m      0.       
   26.35000n      1.0001      29.0731m    -56.5078m      1.0000     430.1820m      0.       
   26.40000n      1.0134      62.1002m    -70.6917m      1.0000     662.9745m      0.       
   26.45000n      1.0224     107.3190m    -83.5510m      1.0000     826.5823m      0.       
   26.50000n      1.0294     158.0977m    -95.8062m      1.0000     958.6387m      0.       
   26.55000n      1.0296     219.8497m   -101.4448m      1.0000       1.0000       0.       
   26.60000n      1.0267     286.6060m   -104.0658m      1.0000       1.0000       0.       
   26.65000n      1.0166     358.2566m    -97.3287m      1.0000       1.0000       0.       
   26.70000n      1.0058     430.3061m    -89.8287m      1.0000       1.0000       0.       
   26.75000n    991.9172m    498.0660m    -74.3126m      1.0000       1.0000       8.8642m  
   26.80000n    977.7272m    565.4762m    -58.1431m      1.0000       1.0000      18.4510m  
   26.85000n    963.6497m    621.1744m    -36.8038m      1.0000       1.0000      89.5544m  
   26.90000n    949.5726m    676.8336m    -15.4473m      1.0000       1.0000     160.8629m  
   26.95000n    934.1444m    718.4796m     13.1421m      1.0000       1.0000     340.0389m  
   27.00000n    918.7117m    760.0788m     41.7555m      1.0000       1.0000     519.5743m  
   27.05000n    898.1457m    790.2944m     76.0393m      1.0000       1.0000     745.2356m  
   27.10000n    874.5042m    820.0551m    126.8180m      1.0000       1.0000     877.2920m  
   27.15000n    845.8434m    849.0455m    180.5595m      1.0000       1.0000     984.8609m  
   27.20000n    815.1634m    877.6122m    245.4841m      1.0000       1.0000       1.0000   
   27.25000n    784.8573m    905.6162m    313.8741m      1.0000       1.0000       1.0000   
   27.30000n    760.5159m    931.0573m    385.0960m      1.0000       1.0000       1.0000   
   27.35000n    739.7791m    954.9043m    455.4704m      1.0000       1.0000       1.0000   
   27.40000n    727.1696m    974.9290m    521.1671m      1.0000       1.0000       1.0000   
   27.45000n    719.1568m    992.7919m    584.2180m      1.0000       1.0000       1.0000   
   27.50000n    719.6199m      1.0071     639.2160m      1.0000       1.0000       1.0000   
   27.55000n    724.8770m      1.0194     689.6593m      1.0000       1.0000       1.0000   
   27.60000n    726.0569m      1.0305     731.7442m    940.4967m      1.0000       1.0000   
   27.65000n    724.9307m      1.0410     769.1015m    847.3380m      1.0000       1.0000   
   27.70000n    691.3711m      1.0531     801.4626m    654.0000m      1.0000       1.0000   
   27.75000n    639.4670m      1.0661     830.9977m    404.0000m      1.0000       1.0000   
   27.80000n    556.1661m      1.0793     859.8422m    213.5033m      1.0000       1.0000   
   27.85000n    455.1069m      1.0925     888.2961m     56.6620m      1.0000       1.0000   
   27.90000n    358.5811m      1.1007     914.7824m      0.           1.0000       1.0000   
   27.95000n    264.6194m      1.1060     940.1557m      0.           1.0000       1.0000   
   28.00000n    202.5398m      1.1006     961.0085m      0.           1.0000       1.0000   
   28.05000n    141.7384m      1.0947     981.6801m      0.           1.0000       1.0000   
   28.10000n    104.6373m      1.0803     996.9760m      0.           1.0000       1.0000   
   28.15000n     69.8217m      1.0650       1.0117       0.         996.0453m      1.0000   
   28.20000n     48.3224m      1.0447       1.0232       0.         952.6523m      1.0000   
   28.25000n     27.4590m      1.0239       1.0346       0.         898.0656m      1.0000   
   28.30000n     12.9362m    998.0341m      1.0463       0.         731.8508m      1.0000   
   28.35000n     -1.2552m    971.0563m      1.0581       0.         561.9547m      1.0000   
   28.40000n    -12.1426m    933.3372m      1.0712       0.         355.3477m      1.0000   
   28.45000n    -22.3893m    893.9745m      1.0840       0.         159.9344m      1.0000   
   28.50000n    -26.2458m    838.2212m      1.0936       0.          76.1492m      1.0000   
   28.55000n    -29.2125m    781.2444m      1.1021       0.           0.           1.0000   
   28.60000n    -23.3057m    712.0662m      1.1006       0.           0.           1.0000   
   28.65000n    -16.3631m    642.6291m      1.0975       0.           0.           1.0000   
   28.70000n     -3.8879m    571.8095m      1.0863       0.           0.           1.0000   
   28.75000n      8.8530m    502.2086m      1.0740       0.           0.         995.4925m  
   28.80000n     23.0130m    439.1168m      1.0556       0.           0.         966.9086m  
   28.85000n     37.1732m    378.0512m      1.0364       0.           0.         923.2312m  
   28.90000n     51.3343m    327.8086m      1.0124       0.           0.         798.9327m  
   28.95000n     65.7436m    279.2484m    987.3234m      0.           0.         665.4101m  
   29.00000n     81.4779m    239.6749m    956.5722m      0.           0.         482.6176m  
   29.05000n    101.0771m    206.2876m    918.4029m      0.           0.         279.0761m  
   29.10000n    126.1052m    176.4886m    868.4762m      0.           0.         155.6095m  
   29.15000n    152.5565m    147.2868m    815.3468m      0.           0.          53.1199m  
   29.20000n    182.3571m    119.4908m    754.6800m      0.           0.           0.       
   29.25000n    212.0231m     92.3866m    685.4991m      0.           0.           0.       
   29.30000n    235.8704m     67.6508m    615.0940m      0.           0.           0.       
   29.35000n    257.6092m     43.8971m    545.5561m      0.           0.           0.       
   29.40000n    269.6611m     24.6548m    480.0029m      0.           0.           0.       
   29.45000n    279.3240m      6.4791m    416.4547m      0.           0.           0.       
   29.50000n    278.0104m     -6.7969m    362.1193m      0.           0.           0.       
   29.55000n    275.6019m    -19.5765m    309.9031m      4.5860m      0.           0.       
   29.60000n    268.1633m    -30.0748m    267.4234m     30.2427m      0.           0.       
   29.65000n    267.9978m    -40.8699m    226.9810m     96.0000m      0.           0.       
   29.70000n    301.2484m    -53.0286m    195.8987m    346.0000m      0.           0.       
   29.75000n    346.3654m    -65.4532m    165.3064m    595.6048m      0.           0.       
   29.80000n    446.0027m    -79.0990m    136.9657m    843.3937m      0.           0.       
   29.85000n    548.0806m    -90.9471m    109.4520m      1.0000       0.           0.       
   29.90000n    654.3503m    -99.7076m     83.3586m      1.0000       0.           0.       
   29.95000n    739.0778m   -102.5593m     59.2538m      1.0000       0.           0.       
   30.00000n    810.4806m   -101.5981m     36.5113m      1.0000       0.           0.       
   30.05000n    860.0184m    -92.8198m     17.3103m      1.0000       0.           0.       
   30.10000n    899.1453m    -80.0764m      1.3892m      1.0000      74.6913u      0.       
   30.15000n    929.8295m    -64.1174m    -11.8722m      1.0000     209.9520u      0.       
   30.20000n    953.5984m    -45.9085m    -23.6126m      1.0000      15.0913m      0.       
   30.25000n    971.7593m    -25.8749m    -34.1197m      1.0000      41.9307m      0.       
   30.30000n    987.3409m     -2.8442m    -45.5432m      1.0000     191.9936m      0.       
   30.35000n      1.0008      22.6170m    -57.7097m      1.0000     441.9819m      0.       
   30.40000n      1.0126      56.9132m    -70.6673m      1.0000     689.4454m      0.       
   30.45000n      1.0229      98.3740m    -84.2664m      1.0000     934.8615m      0.       
   30.50000n      1.0280     154.4618m    -94.3111m      1.0000       1.0000       0.       
   30.55000n      1.0305     216.7937m   -102.2986m      1.0000       1.0000       0.       
   30.60000n      1.0251     289.0211m   -102.3101m      1.0000       1.0000       0.       
   30.65000n      1.0168     362.0008m    -97.9213m      1.0000       1.0000       0.       
   30.70000n      1.0054     435.2358m    -88.9200m      1.0000       1.0000       9.9637u  
   30.75000n    991.5113m    503.3824m    -73.4750m      1.0000       1.0000     135.5439u  
   30.80000n    977.7087m    570.5996m    -57.6890m      1.0000       1.0000       2.2290m  
   30.85000n    964.8016m    627.0316m    -37.9471m      1.0000       1.0000      27.1572m  
   30.90000n    951.8783m    682.2974m    -17.7810m      1.0000       1.0000      68.7232m  
   30.95000n    938.7669m    724.0315m      7.3065m      1.0000       1.0000     303.3503m  
   31.00000n    925.6555m    765.7657m     32.3940m      1.0000       1.0000     537.9774m  
   31.05000n    903.5671m    796.4010m     72.8341m      1.0000       1.0000     783.6852m  
   31.10000n    877.4022m    825.3573m    116.6561m      1.0000       1.0000       1.0000   
   31.15000n    845.0275m    853.1831m    178.0290m      1.0000       1.0000       1.0000   
   31.20000n    811.5734m    881.0332m    244.5290m      1.0000       1.0000       1.0000   
   31.25000n    780.3029m    908.1533m    316.8439m      1.0000       1.0000       1.0000   
   31.30000n    754.8331m    933.3999m    389.7192m      1.0000       1.0000       1.0000   
   31.35000n    733.8114m    956.8406m    461.0961m      1.0000       1.0000       1.0000   
   31.40000n    721.8278m    976.3822m    528.0796m      1.0000       1.0000       1.0000   
   31.45000n    713.5454m    994.0088m    591.8831m      1.0000       1.0000       1.0000   
   31.50000n    715.5415m      1.0063     646.8557m      1.0000       1.0000       1.0000   
   31.55000n    719.8396m      1.0177     698.1485m    996.0538m      1.0000       1.0000   
   31.60000n    730.5304m      1.0266     739.2226m    981.1490m      1.0000       1.0000   
   31.65000n    730.8217m      1.0367     777.2658m    904.0000m      1.0000       1.0000   
   31.70000n    702.2340m      1.0503     806.8925m    654.0000m      1.0000       1.0000   
   31.75000n    655.6071m      1.0648     836.0451m    404.0000m      1.0000       1.0000   
   31.80000n    558.8854m      1.0818     863.8814m    154.0000m      1.0000       1.0000   
   31.85000n    456.5012m      1.0955     891.1149m     22.7538m      1.0000       1.0000   
   31.90000n    348.7838m      1.1062     917.7807m      3.3539m      1.0000       1.0000   
   31.95000n    266.0886m      1.1081     941.8143m      0.           1.0000       1.0000   
   32.00000n    194.7779m      1.1058     964.3445m      0.           1.0000       1.0000   
   32.05000n    142.7660m      1.0962     983.8862m      0.           1.0000       1.0000   
   32.10000n    104.3911m      1.0817     998.7319m      0.           1.0000       1.0000   
   32.15000n     73.3755m      1.0646       1.0110       0.           1.0000       1.0000   
   32.20000n     50.9293m      1.0448       1.0211       0.         990.3230m      1.0000   
   32.25000n     33.1078m      1.0237       1.0300       0.         975.4237m      1.0000   
   32.30000n     16.6080m    999.6879m      1.0419       0.         807.8842m      1.0000   
   32.35000n    821.6499u    974.1700m      1.0555       0.         557.9699m      1.0000   
   32.40000n    -13.5842m    939.7868m      1.0713       0.         308.0000m      1.0000   
   32.45000n    -27.2450m    900.6193m      1.0883       0.          58.0000m      1.0000   
   32.50000n    -32.6349m    844.4036m      1.0996       0.          15.3585m      1.0000   
   32.55000n    -34.2052m    782.7900m      1.1074       0.           1.1636m      1.0000   
   32.60000n    -28.4894m    712.3866m      1.1079       0.         256.4221u      1.0000   
   32.65000n    -18.0647m    639.8505m      1.1016       0.           0.           1.0000   
   32.70000n     -5.1379m    567.4124m      1.0909       0.           0.           1.0000   
   32.75000n      9.8501m    497.9652m      1.0745       0.           0.           1.0000   
   32.80000n     24.5394m    431.2031m      1.0571       0.           0.         996.8071m  
   32.85000n     38.2772m    372.9993m      1.0364       0.           0.         983.4374m  
   32.90000n     51.7835m    318.7958m      1.0146       0.           0.         919.3392m  
   32.95000n     64.5524m    277.3427m    989.5477m      0.           0.         693.5520m  
   33.00000n     77.5686m    238.2544m    963.9140m      0.           0.         462.0000m  
   33.05000n     96.5999m    208.7810m    924.0713m      0.           0.         220.2125m  
   33.10000n    121.0462m    180.3757m    880.2057m      0.           0.          27.3555m  
   33.15000n    152.2129m    151.6249m    822.0854m      0.           0.           7.8798m  
   33.20000n    185.1358m    122.2578m    755.7551m      0.           0.         815.2391u  
   33.25000n    216.3048m     93.0426m    684.9285m      0.           0.          37.1865u  
   33.30000n    241.5215m     66.5135m    612.7061m      0.           0.           0.       
   33.35000n    264.0524m     41.2711m    540.9981m      0.           0.           0.       
   33.40000n    275.4572m     22.0028m    474.9658m      0.           0.           0.       
   33.45000n    285.4573m      3.4888m    409.6501m      0.           0.           0.       
   33.50000n    282.6811m     -8.6972m    356.1142m      0.           0.           0.       
   33.55000n    278.2919m    -20.0842m    304.0656m      0.           0.           0.       
   33.60000n    273.0766m    -29.5049m    265.0198m     55.0608m      0.           0.       
   33.65000n    267.7570m    -38.6773m    227.6157m    117.0732m      0.           0.       
   33.70000n    304.5220m    -51.7764m    197.9798m    346.0000m      0.           0.       
   33.75000n    346.6003m    -65.3712m    169.3247m    596.0000m      0.           0.       
   33.80000n    440.9276m    -80.0722m    140.1826m    790.9392m      0.           0.       
   33.85000n    541.8515m    -94.9129m    110.9791m    978.9268m      0.           0.       
   33.90000n    641.9717m   -102.7467m     83.5829m      1.0000       0.           0.       
   33.95000n    734.5799m   -107.2978m     57.5678m      1.0000       0.           0.       
   34.00000n    799.4156m   -102.8613m     35.8736m      1.0000       0.           0.       
   34.05000n    858.3274m    -96.2630m     15.6271m      1.0000       0.           0.       
   34.10000n    896.7789m    -82.1976m    380.9754u      1.0000       0.           0.       
   34.15000n    927.8191m    -65.0991m    -12.6542m      1.0000      11.6362m      0.       
   34.20000n    950.3403m    -44.5141m    -23.1480m      1.0000      36.6480m      0.       
   34.25000n    969.5483m    -21.6909m    -33.8569m      1.0000     114.1483m      0.       
   34.30000n    984.9478m      3.7050m    -44.8131m      1.0000     251.9828m      0.       
   34.35000n    999.1769m     33.1295m    -57.2306m      1.0000     430.3638m      0.       
   34.40000n      1.0121      67.1846m    -71.3279m      1.0000     655.3520m      0.       
   34.45000n      1.0218     109.1938m    -84.2902m      1.0000     827.8517m      0.       
   34.50000n      1.0280     160.3459m    -95.9480m      1.0000     940.0172m      0.       
   34.55000n      1.0295     218.9101m   -102.6705m      1.0000       1.0000       0.       
   34.60000n      1.0255     285.9942m   -103.7200m      1.0000       1.0000       0.       
   34.65000n      1.0164     356.3705m    -98.1460m      1.0000       1.0000       0.       
   34.70000n      1.0047     428.4552m    -89.1351m      1.0000       1.0000       0.       
   34.75000n    990.8559m    496.9003m    -74.2407m      1.0000       1.0000       9.8049m  
   34.80000n    975.9675m    563.4568m    -56.2934m      1.0000       1.0000      24.6977m  
   34.85000n    961.2109m    621.5711m    -34.7235m      1.0000       1.0000      90.4805m  
   34.90000n    946.5228m    675.3047m    -11.2739m      1.0000       1.0000     182.6703m  
   34.95000n    931.4874m    720.2761m     16.3765m      1.0000       1.0000     334.2945m  
   35.00000n    916.2719m    760.7006m     46.2067m      1.0000       1.0000     516.7592m  
   35.05000n    898.2889m    792.6371m     80.2618m      1.0000       1.0000     741.7474m  
   35.10000n    873.8735m    821.5954m    129.4868m      1.0000       1.0000     866.6299m  
   35.15000n    848.9493m    850.3842m    180.0367m      1.0000       1.0000     982.7696m  
   35.20000n    818.9334m    878.5412m    244.6704m      1.0000       1.0000       1.0000   
   35.25000n    788.8963m    906.2866m    312.2361m      1.0000       1.0000       1.0000   
   35.30000n    762.7413m    932.3214m    384.1391m      1.0000       1.0000       1.0000   
   35.35000n    742.3856m    955.7411m    453.9613m      1.0000       1.0000       1.0000   
   35.40000n    727.4902m    976.6984m    521.8244m      1.0000       1.0000       1.0000   
   35.45000n    719.9158m    994.3140m    583.9709m      1.0000       1.0000       1.0000   
   35.50000n    719.2345m      1.0088     640.7351m      1.0000       1.0000       1.0000   
   35.55000n    724.7153m      1.0210     690.7036m      1.0000       1.0000       1.0000   
   35.60000n    735.9980m      1.0311     734.2737m      1.0000       1.0000       1.0000   
   35.65000n    729.7496m      1.0415     771.4775m    879.6728m      1.0000       1.0000   
   35.70000n    706.9954m      1.0521     802.6875m    646.0554m      1.0000       1.0000   
   35.75000n    650.2242m      1.0641     832.5464m    404.0000m      1.0000       1.0000   
   35.80000n    561.4254m      1.0775     861.1332m    154.0000m      1.0000       1.0000   
   35.85000n    457.8744m      1.0892     888.8652m     55.9452m      1.0000       1.0000   
   35.90000n    352.2611m      1.1000     916.1849m      0.           1.0000       1.0000   
   35.95000n    269.5867m      1.1029     940.7334m      0.           1.0000       1.0000   
   36.00000n    198.9571m      1.1014     963.2612m      0.           1.0000       1.0000   
   36.05000n    145.2490m      1.0938     982.9502m      0.           1.0000       1.0000   
   36.10000n    103.3800m      1.0816     999.4419m      0.           1.0000       1.0000   
   36.15000n     71.9898m      1.0653       1.0131       0.           1.0000       1.0000   
   36.20000n     47.6852m      1.0465       1.0249       0.         977.1609m      1.0000   
   36.25000n     29.6521m      1.0256       1.0351       0.         934.1067m      1.0000   
   36.30000n     14.3719m      1.0016       1.0458       0.         788.3621m      1.0000   
   36.35000n      1.5283m    974.9883m      1.0570       0.         551.7255m      1.0000   
   36.40000n     -9.6151m    940.1553m      1.0689       0.         340.4493m      1.0000   
   36.45000n    -19.2536m    898.0459m      1.0816       0.         151.6196m      1.0000   
   36.50000n    -25.3513m    845.9058m      1.0920       0.          43.9390m      1.0000   
   36.55000n    -28.4831m    785.3637m      1.1005       0.           4.2327m      1.0000   
   36.60000n    -23.4888m    715.7963m      1.0998       0.           0.           1.0000   
   36.65000n    -17.5249m    645.1520m      1.0979       0.           0.           1.0000   
   36.70000n     -5.5459m    574.3186m      1.0871       0.           0.           1.0000   
   36.75000n      7.1508m    503.4625m      1.0752       0.           0.           1.0000   
   36.80000n     21.2825m    440.5762m      1.0569       0.           0.         980.2827m  
   36.85000n     35.4487m    377.8812m      1.0384       0.           0.         960.0919m  
   36.90000n     49.1692m    327.8416m      1.0149       0.           0.         828.9200m  
   36.95000n     62.8790m    278.1060m    991.3107m      0.           0.         695.0830m  
   37.00000n     77.3379m    238.7217m    964.7693m      0.           0.         460.8571m  
   37.05000n     96.2770m    205.5907m    923.9853m      0.           0.         267.9387m  
   37.10000n    121.1784m    176.0025m    881.0401m      0.           0.          85.6160m  
   37.15000n    151.3168m    148.7288m    820.1767m      0.           0.          42.8080m  
   37.20000n    181.4552m    121.4551m    759.3132m      0.           0.           0.       
   37.25000n    211.2310m     95.0537m    688.6689m      0.           0.           0.       
   37.30000n    237.3403m     69.6333m    618.0935m      0.           0.           0.       
   37.35000n    257.1289m     46.5954m    547.8300m      0.           0.           0.       
   37.40000n    273.9525m     24.9587m    479.3989m      0.           0.           0.       
   37.45000n    279.9714m      8.4282m    417.6448m      0.           0.           0.       
   37.50000n    283.2179m     -6.8606m    358.6445m      0.           0.           0.       
   37.55000n    276.3615m    -17.6245m    309.6785m      0.           0.           0.       
   37.60000n    272.9743m    -28.4496m    263.6473m     31.4571m      0.           0.       
   37.65000n    282.2282m    -39.4980m    228.3100m    177.5399m      0.           0.       
   37.70000n    303.7492m    -51.2463m    194.5038m    346.0000m      0.           0.       
   37.75000n    369.9702m    -65.5453m    166.2772m    596.0000m      0.           0.       
   37.80000n    443.7388m    -79.3169m    138.3710m    814.5429m      0.           0.       
   37.85000n    545.0103m    -91.1664m    111.6328m    918.4601m      0.           0.       
   37.90000n    642.8493m   -101.1806m     85.4518m      1.0000       0.           0.       
   37.95000n    728.1811m   -104.5069m     61.3009m      1.0000       0.           0.       
   38.00000n    797.2216m   -102.1305m     39.6068m      1.0000       0.           0.       
   38.05000n    852.2759m    -94.8583m     20.0219m      1.0000       0.           0.       
   38.10000n    894.7143m    -82.9289m      3.7269m      1.0000       0.           0.       
   38.15000n    926.3219m    -67.0015m     -9.7436m      1.0000       0.           0.       
   38.20000n    951.1145m    -48.1026m    -21.8391m      1.0000      41.7090m      0.       
   38.25000n    970.0564m    -26.6527m    -32.7539m      1.0000     119.2260m      0.       
   38.30000n    986.4343m   -997.8534u    -44.6687m      1.0000     263.3058m      0.       
   38.35000n      1.0006      28.2671m    -57.4419m      1.0000     464.5309m      0.       
   38.40000n      1.0123      65.4677m    -70.3368m      1.0000     650.2910m      0.       
   38.45000n      1.0220     109.4813m    -83.3360m      1.0000     822.7740m      0.       
   38.50000n      1.0272     162.5072m    -93.3425m      1.0000     929.4181m      0.       
   38.55000n      1.0286     223.2704m   -100.7797m      1.0000     979.5383m      0.       
   38.60000n      1.0246     289.5795m   -101.6126m      1.0000       1.0000       0.       
   38.65000n      1.0169     359.7147m    -97.8891m      1.0000       1.0000       0.       
   38.70000n      1.0060     429.2137m    -88.6590m      1.0000       1.0000       0.       
   38.75000n    992.8532m    498.2737m    -75.6296m      1.0000       1.0000       0.       
   38.80000n    979.0508m    561.7375m    -58.7117m      1.0000       1.0000      30.5111m  
   38.85000n    964.8032m    621.3405m    -39.1109m      1.0000       1.0000      82.0721m  
   38.90000n    949.8907m    672.8412m    -15.3399m      1.0000       1.0000     197.6847m  
   38.95000n    934.5195m    718.7520m     11.3082m      1.0000       1.0000     357.4872m  
   39.00000n    917.9848m    759.3451m     39.5048m      1.0000       1.0000     541.8014m  
   39.05000n    897.1100m    792.2039m     82.3689m      1.0000       1.0000     716.5245m  
   39.10000n    872.4980m    822.6841m    127.5177m      1.0000       1.0000     880.7139m  
   39.15000n    843.5957m    850.9809m    187.0606m      1.0000       1.0000     939.7492m  
   39.20000n    814.6935m    879.2778m    246.6035m      1.0000       1.0000     998.7844m  
   39.25000n    786.7928m    905.8396m    316.5114m      1.0000       1.0000       1.0000   
   39.30000n    761.6806m    931.4093m    386.5341m      1.0000       1.0000       1.0000   
   39.35000n    743.4479m    953.9154m    455.6675m      1.0000       1.0000       1.0000   
   39.40000n    726.7297m    975.7089m    523.8029m      1.0000       1.0000       1.0000   
   39.45000n    721.9785m    991.8709m    584.0517m      1.0000       1.0000       1.0000   
   39.50000n    718.6598m      1.0075     642.7949m      1.0000       1.0000       1.0000   
   39.55000n    726.6613m      1.0192     689.6409m      1.0000       1.0000       1.0000   
   39.60000n    732.4676m      1.0310     735.1171m    982.1431m      1.0000       1.0000   
   39.65000n    720.9270m      1.0429     769.7705m    823.1853m      1.0000       1.0000   
   39.70000n    702.7881m      1.0550     803.7987m    654.0000m      1.0000       1.0000   
   39.75000n    632.5099m      1.0683     832.8868m    404.0000m      1.0000       1.0000   
   39.80000n    557.0966m      1.0812     861.6679m    178.7175m      1.0000       1.0000   
   39.85000n    455.0784m      1.0913     888.8586m     81.4939m      1.0000       1.0000   
   39.90000n    355.9582m      1.1001     915.5085m      0.           1.0000       1.0000   
   39.95000n    271.8518m      1.1022     939.3566m      0.           1.0000       1.0000   
   40.00000n    197.2922m      1.1015     962.5578m      0.           1.0000       1.0000   
y

          ***** job concluded
1****** HSPICE -- J-2014.09-SP1-2 64-BIT (Jan 29 2015) win64 ******             
 ******  
 ******************************** stl designer 2 t element template ver 2.3 *****

 ****** job statistics summary tnom=  25.000 temp=  25.000 ******

  ******  HSPICE Threads Information  ******

  Command Line Threads Count :     1
  Available CPU Count        :     4
  Actual Threads Count       :     1


  ******  Circuit Statistics  ******
  # nodes       =      11 # elements   =      14
  # resistors   =       4 # capacitors =       2 # inductors   =       0
  # mutual_inds =       0 # vccs       =       0 # vcvs        =       0
  # cccs        =       0 # ccvs       =       0 # volt_srcs   =       2
  # curr_srcs   =       0 # diodes     =       0 # bjts        =       0
  # jfets       =       0 # mosfets    =       0 # U elements  =       0
  # T elements  =       6 # W elements =       0 # B elements  =       0
  # S elements  =       0 # P elements =       0 # va device   =       0
  # vector_srcs =       0 # N elements =       0


  ******  Runtime Statistics (seconds)  ******

  analysis           time    # points   tot. iter  conv.iter
  op point           0.00           1           3
  transient          0.00         401        1138         569 rev=        28
  readin             0.02
  errchk             0.02
  setup              0.00
  output             0.00


           peak memory used         40.61 megabytes
           total cpu time            0.03 seconds
           total elapsed time        0.84 seconds
           job started at     07:58:20 08/21/2015
           job ended   at     07:58:21 08/21/2015


  lic: Release hspice token(s) 
 lic: total license checkout elapse time:        0.80(s)
