 ****** HSPICE -- J-2014.09-SP1-2 64-BIT (Jan 29 2015) win64 ******             
  Copyright (C) 2014 Synopsys, Inc. All Rights Reserved.                        
  Unpublished-rights reserved under US copyright laws.
  This program is protected by law and is subject to the
  terms and conditions of the license agreement from Synopsys.
  Use of this program is your acceptance to be bound by the
  license agreement. HSPICE is the trademark of Synopsys, Inc.
  Input File: .\template\basic\template_W.sp                                    
  Command line options: -i ./template/basic/template_W.sp -o ./template/basic/template_W
  lic:  
  lic: FLEXlm: v10.9.8 
  lic: USER:   odaira               HOSTNAME: odaira 
  lic: HOSTID: 4437e6e4de4c         PID:      12084 
  lic: Using FLEXlm license file: 
  lic: C:\synopsys\Hspice_J-2014.09-SP1-2\key 
  lic: Checkout 1 hspice 
  lic: License/Maintenance for hspice will expire on 31-mar-2016/2014.09 
  lic: 23(in_use)/180(total) FLOATING license(s) on SERVER C:\synopsys\Hspice_J-
 2014.09-SP1-2\key 
  lic:   
 Init: read install configuration file: C:\synopsys\Hspice_J-2014.09-SP1-2\meta.cfg

 **warning** It is recommended that you set start explicitly:
             .TRAN tstep tstop START=val


  **info** (.\template\basic\template_W.sp:11) DC voltage reset to initial transient source value              in source        0:vs1                 new dc=  0.0000D+00
  
      
 *****************************************************************
 ******  option summary
 ******
 runlvl  = 3         bypass  = 2         
 **info** dc convergence successful at Newton-Raphson method 
1****** HSPICE -- J-2014.09-SP1-2 64-BIT (Jan 29 2015) win64 ******             
 ******  
 ******************** stl ver 2.3 t element basic model ********************

 ****** operating point information tnom=  25.000 temp=  25.000 ******
 ****** operating point status is voltage   simulation time is     0.     
    node    =voltage      node    =voltage      node    =voltage      node    =voltage      node    =voltage

 +0:101     =   0.      0:102     =   0.      0:1001    =   0.      0:1002    =   0.      0:optpt1  =   0.     
 +0:optpt2  =   0.      0:optpt3  =   0.      0:vspt1   =   0.      0:vspt2   =   0.      0:vspt3   =   0.     

 ******  
 ******************** stl ver 2.3 t element basic model ********************

 ****** transient analysis tnom=  25.000 temp=  25.000 ******
x

        time    voltage      voltage      voltage      voltage      voltage      voltage    
                  optpt1       optpt2       optpt3        vspt1        vspt2        vspt3   
   20.00000n    195.9124m      1.1025     937.2281m      0.           1.0000       1.0000   
   20.01000n    185.6532m      1.1008     941.2481m      0.           1.0000       1.0000   
   20.02000n    175.9527m      1.0989     945.0167m      0.           1.0000       1.0000   
   20.03000n    166.8635m      1.0967     948.5103m      0.           1.0000       1.0000   
   20.04000n    157.7744m      1.0946     952.0038m      0.           1.0000       1.0000   
   20.05000n    148.6852m      1.0924     955.4973m      0.           1.0000       1.0000   
   20.06000n    139.5961m      1.0903     958.9908m      0.           1.0000       1.0000   
   20.07000n    132.3038m      1.0874     961.9718m      0.           1.0000       1.0000   
   20.08000n    126.0065m      1.0842     964.6688m      0.           1.0000       1.0000   
   20.09000n    119.7092m      1.0809     967.3658m      0.           1.0000       1.0000   
   20.10000n    113.4119m      1.0777     970.0629m      0.           1.0000       1.0000   
   20.11000n    107.1146m      1.0744     972.7599m      0.           1.0000       1.0000   
   20.12000n    100.8173m      1.0712     975.4569m      0.           1.0000       1.0000   
   20.13000n     94.5200m      1.0679     978.1540m      0.           1.0000       1.0000   
   20.14000n     88.2227m      1.0647     980.8510m      0.           1.0000       1.0000   
   20.15000n     81.9254m      1.0614     983.5481m      0.           1.0000       1.0000   
   20.16000n     75.6281m      1.0582     986.2451m      0.           1.0000       1.0000   
   20.17000n     70.7483m      1.0544     988.8019m      0.         991.8791m      1.0000   
   20.18000n     66.6534m      1.0504     991.2811m      0.         979.2612m      1.0000   
   20.19000n     62.5585m      1.0464     993.7603m      0.         966.6433m      1.0000   
   20.20000n     58.4637m      1.0424     996.2395m      0.         954.0254m      1.0000   
   20.21000n     54.3688m      1.0383     998.7186m      0.         941.4075m      1.0000   
   20.22000n     50.2739m      1.0343       1.0012       0.         928.7895m      1.0000   
   20.23000n     46.1790m      1.0303       1.0037       0.         916.1716m      1.0000   
   20.24000n     42.0842m      1.0263       1.0062       0.         903.5537m      1.0000   
   20.25000n     37.9893m      1.0222       1.0086       0.         890.9358m      1.0000   
   20.26000n     33.8944m      1.0182       1.0111       0.         878.3179m      1.0000   
   20.27000n     30.3735m      1.0135       1.0139       0.         849.1298m      1.0000   
   20.28000n     27.1703m      1.0083       1.0169       0.         810.7657m      1.0000   
   20.29000n     23.9672m      1.0032       1.0199       0.         772.4016m      1.0000   
   20.30000n     20.7640m    997.9993m      1.0229       0.         734.0375m      1.0000   
   20.31000n     17.5609m    992.8440m      1.0259       0.         695.6734m      1.0000   
   20.32000n     14.3577m    987.6887m      1.0289       0.         657.3093m      1.0000   
   20.33000n     11.1546m    982.5335m      1.0319       0.         618.9452m      1.0000   
   20.34000n      7.9514m    977.3782m      1.0349       0.         580.5811m      1.0000   
   20.35000n      4.7483m    972.2229m      1.0379       0.         542.2170m      1.0000   
   20.36000n      1.5451m    967.0677m      1.0409       0.         503.8529m      1.0000   
   20.37000n     -1.1187m    960.2038m      1.0441       0.         458.0000m      1.0000   
   20.38000n     -3.4837m    952.3939m      1.0473       0.         408.0000m      1.0000   
   20.39000n     -5.8488m    944.5840m      1.0505       0.         358.0000m      1.0000   
   20.40000n     -8.2139m    936.7740m      1.0538       0.         308.0000m      1.0000   
   20.41000n    -10.5191m    928.7939m      1.0570       0.         258.0000m      1.0000   
   20.42000n    -12.5515m    920.0375m      1.0599       0.         208.0000m      1.0000   
   20.43000n    -14.5839m    911.2812m      1.0629       0.         158.0000m      1.0000   
   20.44000n    -16.6163m    902.5249m      1.0659       0.         108.0000m      1.0000   
   20.45000n    -17.9922m    892.2085m      1.0685       0.          74.3489m      1.0000   
   20.46000n    -18.9519m    880.9037m      1.0710       0.          51.0569m      1.0000   
   20.47000n    -19.9117m    869.5989m      1.0734       0.          27.7649m      1.0000   
   20.48000n    -20.8632m    858.2793m      1.0758       0.           5.3596m      1.0000   
   20.49000n    -21.6349m    846.6421m      1.0779       0.           2.0298m      1.0000   
   20.50000n    -22.1106m    834.5862m      1.0795       0.           0.           1.0000   
   20.51000n    -22.1237m    821.8764m      1.0807       0.           0.           1.0000   
   20.52000n    -22.1369m    809.1666m      1.0819       0.           0.           1.0000   
   20.53000n    -22.1501m    796.4569m      1.0831       0.           0.           1.0000   
   20.54000n    -22.1632m    783.7471m      1.0842       0.           0.           1.0000   
   20.55000n    -22.0738m    770.9289m      1.0853       0.           0.           1.0000   
   20.56000n    -21.0358m    757.1077m      1.0853       0.           0.           1.0000   
   20.57000n    -19.9979m    743.2866m      1.0854       0.           0.           1.0000   
   20.58000n    -18.9599m    729.4654m      1.0854       0.           0.           1.0000   
   20.59000n    -17.9219m    715.6442m      1.0854       0.           0.           1.0000   
   20.60000n    -16.8839m    701.8230m      1.0855       0.           0.           1.0000   
   20.61000n    -15.0328m    687.8353m      1.0842       0.           0.           1.0000   
   20.62000n    -12.9771m    673.8056m      1.0826       0.           0.           1.0000   
   20.63000n    -10.9214m    659.7759m      1.0809       0.           0.           1.0000   
   20.64000n     -8.8658m    645.7462m      1.0793       0.           0.           1.0000   
   20.65000n     -6.8101m    631.7165m      1.0777       0.           0.           1.0000   
   20.66000n     -4.7544m    617.6868m      1.0760       0.           0.           1.0000   
   20.67000n     -2.6987m    603.6571m      1.0744       0.           0.           1.0000   
   20.68000n   -643.0384u    589.6274m      1.0728       0.           0.           1.0000   
   20.69000n      1.4126m    575.5977m      1.0712       0.           0.           1.0000   
   20.70000n      3.4683m    561.5680m      1.0695       0.           0.           1.0000   
   20.71000n      5.9381m    548.4492m      1.0668       0.           0.         999.2292m  
   20.72000n      8.5120m    535.5596m      1.0638       0.           0.         998.2643m  
   20.73000n     11.0859m    522.6701m      1.0607       0.           0.         997.2995m  
   20.74000n     13.6599m    509.7805m      1.0577       0.           0.         996.3347m  
   20.75000n     16.2338m    496.8910m      1.0547       0.           0.         995.3698m  
   20.76000n     18.8077m    484.0014m      1.0516       0.           0.         994.4050m  
   20.77000n     21.3817m    471.1119m      1.0486       0.           0.         993.4402m  
   20.78000n     23.9556m    458.2223m      1.0455       0.           0.         992.4753m  
   20.79000n     26.5296m    445.3328m      1.0425       0.           0.         991.5105m  
   20.80000n     29.1035m    432.4432m      1.0395       0.           0.         990.5457m  
   20.81000n     31.4820m    421.4735m      1.0358       0.           0.         978.6978m  
   20.82000n     33.8113m    410.9869m      1.0318       0.           0.         964.1112m  
   20.83000n     36.1406m    400.5002m      1.0279       0.           0.         949.5246m  
   20.84000n     38.4699m    390.0136m      1.0240       0.           0.         934.9380m  
   20.85000n     40.7992m    379.5270m      1.0201       0.           0.         920.3514m  
   20.86000n     43.1285m    369.0403m      1.0162       0.           0.         905.7648m  
   20.87000n     45.4578m    358.5537m      1.0123       0.           0.         891.1781m  
   20.88000n     47.7871m    348.0670m      1.0084       0.           0.         876.5915m  
   20.89000n     50.1164m    337.5804m      1.0045       0.           0.         862.0049m  
   20.90000n     52.4457m    327.0938m      1.0006       0.           0.         847.4183m  
   20.91000n     54.7916m    318.4447m    995.9870m      0.           0.         813.8348m  
   20.92000n     57.1417m    310.2579m    991.1489m      0.           0.         775.4707m  
   20.93000n     59.4918m    302.0712m    986.3108m      0.           0.         737.1066m  
   20.94000n     61.8419m    293.8845m    981.4727m      0.           0.         698.7425m  
   20.95000n     64.1920m    285.6978m    976.6346m      0.           0.         660.3784m  
   20.96000n     66.5421m    277.5111m    971.7965m      0.           0.         622.0143m  
   20.97000n     68.8922m    269.3244m    966.9584m      0.           0.         583.6502m  
   20.98000n     71.5529m    261.8705m    961.0966m      0.           0.         543.6516m  
   20.99000n     74.3709m    254.7875m    954.7167m      0.           0.         502.8258m  
   21.00000n     77.1889m    247.7044m    948.3368m      0.           0.         462.0000m  
   21.01000n     80.4470m    240.9992m    941.1630m      0.           0.         412.0000m  
   21.02000n     83.8801m    234.3750m    933.5596m      0.           0.         362.0000m  
   21.03000n     87.5537m    227.8474m    925.7214m      0.           0.         312.0000m  
   21.04000n     91.6051m    221.3989m    917.2316m      0.           0.         265.6062m  
   21.05000n     96.3939m    215.1048m    907.4701m      0.           0.         226.2479m  
   21.06000n    101.1826m    208.8107m    897.7087m      0.           0.         186.8896m  
   21.07000n    105.9713m    202.5166m    887.9473m      0.           0.         147.5313m  
   21.08000n    110.7600m    196.2225m    878.1859m      0.           0.         108.1730m  
   21.09000n    115.5487m    189.9284m    868.4245m      0.           0.          68.8147m  
   21.10000n    120.3493m    183.6365m    858.6429m      0.           0.          29.8232m  
   21.11000n    126.2480m    177.5413m    846.9912m      0.           0.          24.7530m  
   21.12000n    132.1468m    171.4461m    835.3395m      0.           0.          19.6828m  
   21.13000n    138.0456m    165.3509m    823.6877m      0.           0.          14.6126m  
   21.14000n    143.9444m    159.2557m    812.0360m      0.           0.           9.5425m  
   21.15000n    149.8432m    153.1605m    800.3843m      0.           0.           4.4723m  
   21.16000n    155.7638m    147.0818m    788.5967m      0.           0.           0.       
   21.17000n    161.8481m    141.1260m    775.7927m      0.           0.           0.       
   21.18000n    167.9323m    135.1702m    762.9886m      0.           0.           0.       
   21.19000n    174.0166m    129.2144m    750.1846m      0.           0.           0.       
   21.20000n    180.1008m    123.2586m    737.3806m      0.           0.           0.       
   21.21000n    186.0417m    117.4114m    724.1069m      0.           0.           0.       
   21.22000n    191.8374m    111.6334m    710.7448m      0.           0.           0.       
   21.23000n    197.6051m    105.8687m    697.3911m      0.           0.           0.       
   21.24000n    202.7088m    100.4125m    683.9506m      0.           0.           0.       
   21.25000n    207.7626m     94.9795m    670.5035m      0.           0.           0.       
   21.26000n    212.8165m     89.5465m    657.0565m      0.           0.           0.       
   21.27000n    217.8704m     84.1135m    643.6094m      0.           0.           0.       
   21.28000n    222.9242m     78.6805m    630.1624m      0.           0.           0.       
   21.29000n    227.9781m     73.2475m    616.7153m      0.           0.           0.       
   21.30000n    231.3551m     68.6585m    603.7789m      0.           0.           0.       
   21.31000n    234.5146m     64.1790m    590.9087m      0.           0.           0.       
   21.32000n    237.6741m     59.6996m    578.0386m      0.           0.           0.       
   21.33000n    240.8335m     55.2201m    565.1685m      0.           0.           0.       
   21.34000n    243.9930m     50.7407m    552.2983m      0.           0.           0.       
   21.35000n    247.1525m     46.2612m    539.4282m      0.           0.           0.       
   21.36000n    250.3119m     41.7818m    526.5580m      0.           0.           0.       
   21.37000n    253.4714m     37.3023m    513.6879m      0.           0.           0.       
   21.38000n    256.6309m     32.8229m    500.8177m      0.           0.           0.       
   21.39000n    259.7903m     28.3434m    487.9476m      0.           0.           0.       
   21.40000n    260.6049m     25.0950m    476.7237m      0.           0.           0.       
   21.41000n    261.1150m     22.0064m    465.7134m      0.           0.           0.       
   21.42000n    261.6252m     18.9179m    454.7031m      0.           0.           0.       
   21.43000n    262.1354m     15.8293m    443.6928m      0.           0.           0.       
   21.44000n    262.6456m     12.7407m    432.6825m      0.           0.           0.       
   21.45000n    263.1557m      9.6521m    421.6722m      0.           0.           0.       
   21.46000n    263.6659m      6.5635m    410.6620m      0.           0.           0.       
   21.47000n    264.1761m      3.4749m    399.6517m      0.           0.           0.       
   21.48000n    264.6863m    386.3485u    388.6414m      0.           0.           0.       
   21.49000n    265.1964m     -2.7022m    377.6311m      0.           0.           0.       
   21.50000n    263.7068m     -5.0277m    368.8391m      0.           0.           0.       
   21.51000n    261.9575m     -7.2540m    360.3351m      0.           0.           0.       
   21.52000n    260.2083m     -9.4804m    351.8310m      0.           0.           0.       
   21.53000n    258.4591m    -11.7068m    343.3269m      0.           0.           0.       
   21.54000n    256.7098m    -13.9332m    334.8228m      0.           0.           0.       
   21.55000n    254.9606m    -16.1596m    326.3187m      0.           0.           0.       
   21.56000n    253.2114m    -18.3860m    317.8147m      0.           0.           0.       
   21.57000n    251.4621m    -20.6123m    309.3106m      0.           0.           0.       
   21.58000n    249.7129m    -22.8387m    300.8065m      0.           0.           0.       
   21.59000n    247.9637m    -25.0651m    292.3024m      0.           0.           0.       
   21.60000n    250.4448m    -27.6944m    285.4454m     26.7081m      0.           0.       
   21.61000n    253.4750m    -30.3760m    278.8021m     56.8825m      0.           0.       
   21.62000n    256.5052m    -33.0576m    272.1589m     87.0569m      0.           0.       
   21.63000n    259.5353m    -35.7392m    265.5156m    117.2312m      0.           0.       
   21.64000n    262.5655m    -38.4208m    258.8723m    147.4056m      0.           0.       
   21.65000n    265.5957m    -41.1024m    252.2290m    177.5800m      0.           0.       
   21.66000n    268.6258m    -43.7840m    245.5858m    207.7543m      0.           0.       
   21.67000n    271.6560m    -46.4656m    238.9425m    237.9287m      0.           0.       
   21.68000n    274.6862m    -49.1472m    232.2992m    268.1031m      0.           0.       
   21.69000n    277.7163m    -51.8288m    225.6560m    298.2775m      0.           0.       
   21.70000n    290.2074m    -55.0766m    219.5208m    346.0000m      0.           0.       
   21.71000n    303.9264m    -58.3980m    213.4516m    396.0000m      0.           0.       
   21.72000n    317.6454m    -61.7193m    207.3824m    446.0000m      0.           0.       
   21.73000n    331.3644m    -65.0406m    201.3132m    496.0000m      0.           0.       
   21.74000n    345.0834m    -68.3620m    195.2440m    546.0000m      0.           0.       
   21.75000n    358.8024m    -71.6833m    189.1747m    596.0000m      0.           0.       
   21.76000n    372.5213m    -75.0046m    183.1055m    646.0000m      0.           0.       
   21.77000n    387.0192m    -78.2095m    177.0821m    693.3850m      0.           0.       
   21.78000n    406.3698m    -80.6885m    171.3438m    724.4765m      0.           0.       
   21.79000n    425.7204m    -83.1674m    165.6055m    755.5680m      0.           0.       
   21.80000n    445.0710m    -85.6464m    159.8672m    786.6595m      0.           0.       
   21.81000n    464.4217m    -88.1254m    154.1290m    817.7510m      0.           0.       
   21.82000n    483.7723m    -90.6044m    148.3907m    848.8425m      0.           0.       
   21.83000n    503.1229m    -93.0834m    142.6524m    879.9339m      0.           0.       
   21.84000n    522.4735m    -95.5623m    136.9141m    911.0254m      0.           0.       
   21.85000n    541.8241m    -98.0413m    131.1758m    942.1169m      0.           0.       
   21.86000n    561.1747m   -100.5203m    125.4375m    973.2084m      0.           0.       
   21.87000n    580.2963m   -102.7596m    119.7856m      1.0000       0.           0.       
   21.88000n    597.9905m   -103.5058m    114.6713m      1.0000       0.           0.       
   21.89000n    615.6847m   -104.2519m    109.5571m      1.0000       0.           0.       
   21.90000n    633.3789m   -104.9980m    104.4429m      1.0000       0.           0.       
   21.91000n    651.0731m   -105.7442m     99.3286m      1.0000       0.           0.       
   21.92000n    668.7672m   -106.4903m     94.2144m      1.0000       0.           0.       
   21.93000n    686.4614m   -107.2364m     89.1002m      1.0000       0.           0.       
   21.94000n    704.1556m   -107.9825m     83.9859m      1.0000       0.           0.       
   21.95000n    716.9739m   -106.9100m     79.8250m      1.0000       0.           0.       
   21.96000n    729.4115m   -105.6955m     75.7385m      1.0000       0.           0.       
   21.97000n    741.8492m   -104.4810m     71.6520m      1.0000       0.           0.       
   21.98000n    754.2868m   -103.2665m     67.5655m      1.0000       0.           0.       
   21.99000n    766.7245m   -102.0520m     63.4790m      1.0000       0.           0.       
   22.00000n    779.1621m   -100.8375m     59.3925m      1.0000       0.           0.       
   22.01000n    791.5998m    -99.6230m     55.3060m      1.0000       0.           0.       
   22.02000n    804.0374m    -98.4085m     51.2195m      1.0000       0.           0.       
   22.03000n    816.4751m    -97.1940m     47.1330m      1.0000       0.           0.       
   22.04000n    828.9127m    -95.9794m     43.0465m      1.0000       0.           0.       
   22.05000n    837.1147m    -93.2079m     39.9706m      1.0000       0.           0.       
   22.06000n    844.9860m    -90.3148m     36.9736m      1.0000       0.           0.       
   22.07000n    852.8573m    -87.4217m     33.9766m      1.0000       0.           0.       
   22.08000n    860.7286m    -84.5286m     30.9796m      1.0000       0.           0.       
   22.09000n    868.6000m    -81.6355m     27.9825m      1.0000       0.           0.       
   22.10000n    876.4713m    -78.7424m     24.9855m      1.0000       0.           0.       
   22.11000n    884.3426m    -75.8493m     21.9885m      1.0000       0.           0.       
   22.12000n    891.4157m    -72.7093m     19.1789m      1.0000       0.           0.       
   22.13000n    896.6040m    -68.9863m     16.8119m      1.0000       0.           0.       
   22.14000n    901.7923m    -65.2633m     14.4450m      1.0000       0.           0.       
   22.15000n    906.9807m    -61.5403m     12.0780m      1.0000       0.           0.       
   22.16000n    912.1690m    -57.8174m      9.7111m      1.0000       0.           0.       
   22.17000n    917.3573m    -54.0944m      7.3441m      1.0000       0.           0.       
   22.18000n    922.5456m    -50.3714m      4.9772m      1.0000       0.           0.       
   22.19000n    927.7339m    -46.6484m      2.6102m      1.0000       0.           0.       
   22.20000n    932.9222m    -42.9255m    243.2351u      1.0000       0.           0.       
   22.21000n    938.1106m    -39.2025m     -2.1237m      1.0000       0.           0.       
   22.22000n    942.9685m    -35.4017m     -4.4915m      1.0000       0.           0.       
   22.23000n    946.9738m    -31.3839m     -7.0040m      1.0000      24.6066m      0.       
   22.24000n    950.8823m    -27.2965m     -9.6279m      1.0000      54.4685m      0.       
   22.25000n    954.7462m    -23.1581m    -12.3007m      1.0000      84.6429m      0.       
   22.26000n    958.5551m    -18.9454m    -15.0341m      1.0000     114.8173m      0.       
   22.27000n    962.3135m    -14.5169m    -17.8807m      1.0000     145.6815m      0.       
   22.28000n    966.0067m     -9.8109m    -20.8727m      1.0000     177.4331m      0.       
   22.29000n    969.6999m     -5.1048m    -23.8648m      1.0000     209.1847m      0.       
   22.30000n    973.3931m   -398.6820u    -26.8569m      1.0000     240.9364m      0.       
   22.31000n    977.0863m      4.3074m    -29.8489m      1.0000     272.6880m      0.       
   22.32000n    980.7795m      9.0135m    -32.8410m      1.0000     304.4397m      0.       
   22.33000n    984.2840m     14.2809m    -35.9247m      1.0000     341.5490m      0.       
   22.34000n    987.3843m     20.7504m    -39.2046m      1.0000     390.1321m      0.       
   22.35000n    990.4846m     27.2198m    -42.4845m      1.0000     438.7153m      0.       
   22.36000n    993.5849m     33.6893m    -45.7645m      1.0000     487.2984m      0.       
   22.37000n    996.6852m     40.1588m    -49.0444m      1.0000     535.8816m      0.       
   22.38000n    999.7855m     46.6282m    -52.3243m      1.0000     584.4647m      0.       
   22.39000n      1.0029      53.0977m    -55.6043m      1.0000     633.0478m      0.       
   22.40000n      1.0060      59.5672m    -58.8842m      1.0000     681.6310m      0.       
   22.41000n      1.0084      67.4217m    -61.8552m      1.0000     721.9891m      0.       
   22.42000n      1.0102      76.8367m    -64.4781m      1.0000     753.0806m      0.       
   22.43000n      1.0119      86.2518m    -67.1009m      1.0000     784.1721m      0.       
   22.44000n      1.0136      95.6668m    -69.7238m      1.0000     815.2636m      0.       
   22.45000n      1.0153     105.0818m    -72.3467m      1.0000     846.3551m      0.       
   22.46000n      1.0170     114.4969m    -74.9695m      1.0000     877.4466m      0.       
   22.47000n      1.0187     123.9119m    -77.5924m      1.0000     908.5381m      0.       
   22.48000n      1.0205     133.3269m    -80.2153m      1.0000     939.6296m      0.       
   22.49000n      1.0207     145.2118m    -81.5545m      1.0000     949.7925m      0.       
   22.50000n      1.0208     157.3153m    -82.7802m      1.0000     958.1034m      0.       
   22.51000n      1.0208     169.4188m    -84.0059m      1.0000     966.4144m      0.       
   22.52000n      1.0209     181.5222m    -85.2315m      1.0000     974.7253m      0.       
   22.53000n      1.0210     193.6257m    -86.4572m      1.0000     983.0363m      0.       
   22.54000n      1.0211     205.7292m    -87.6829m      1.0000     991.3472m      0.       
   22.55000n      1.0212     217.8326m    -88.9085m      1.0000     999.6581m      0.       
   22.56000n      1.0198     231.4628m    -88.3256m      1.0000       1.0000       0.       
   22.57000n      1.0183     245.1585m    -87.6651m      1.0000       1.0000       0.       
   22.58000n      1.0169     258.8542m    -87.0046m      1.0000       1.0000       0.       
   22.59000n      1.0155     272.5498m    -86.3441m      1.0000       1.0000       0.       
   22.60000n      1.0140     286.2455m    -85.6836m      1.0000       1.0000       0.       
   22.61000n      1.0126     299.9412m    -85.0232m      1.0000       1.0000       0.       
   22.62000n      1.0111     313.6369m    -84.3627m      1.0000       1.0000       0.       
   22.63000n      1.0097     327.3325m    -83.7022m      1.0000       1.0000       0.       
   22.64000n      1.0082     341.0282m    -83.0417m      1.0000       1.0000       0.       
   22.65000n      1.0068     354.7239m    -82.3812m      1.0000       1.0000       0.       
   22.66000n      1.0044     368.6308m    -80.1598m      1.0000       1.0000       0.       
   22.67000n      1.0019     382.5467m    -77.8715m      1.0000       1.0000       0.       
   22.68000n    999.5124m    396.4626m    -75.5832m      1.0000       1.0000       0.       
   22.69000n    997.0817m    410.3786m    -73.2949m      1.0000       1.0000       0.       
   22.70000n    994.6510m    424.2945m    -71.0066m      1.0000       1.0000       0.       
   22.71000n    992.2203m    438.2105m    -68.7182m      1.0000       1.0000       0.       
   22.72000n    989.7896m    452.1264m    -66.4299m      1.0000       1.0000       0.       
   22.73000n    987.3524m    465.5876m    -63.8261m      1.0000       1.0000       0.       
   22.74000n    984.9013m    478.0728m    -60.5452m      1.0000       1.0000       0.       
   22.75000n    982.4502m    490.5581m    -57.2644m      1.0000       1.0000       0.       
   22.76000n    979.9991m    503.0434m    -53.9835m      1.0000       1.0000       0.       
   22.77000n    977.5480m    515.5287m    -50.7026m      1.0000       1.0000       0.       
   22.78000n    975.0970m    528.0140m    -47.4217m      1.0000       1.0000       0.       
   22.79000n    972.6459m    540.4992m    -44.1409m      1.0000       1.0000       0.       
   22.80000n    970.1948m    552.9845m    -40.8600m      1.0000       1.0000       0.       
   22.81000n    967.7437m    565.4698m    -37.5791m      1.0000       1.0000       0.       
   22.82000n    965.2926m    577.9551m    -34.2983m      1.0000       1.0000       0.       
   22.83000n    962.9257m    589.6038m    -30.7888m      1.0000       1.0000       7.2572m  
   22.84000n    960.7393m    599.4575m    -26.7886m      1.0000       1.0000      30.0876m  
   22.85000n    958.5529m    609.3112m    -22.7885m      1.0000       1.0000      52.9179m  
   22.86000n    956.3665m    619.1648m    -18.7884m      1.0000       1.0000      75.7482m  
   22.87000n    954.1802m    629.0185m    -14.7882m      1.0000       1.0000      98.5785m  
   22.88000n    951.9938m    638.8722m    -10.7881m      1.0000       1.0000     121.4088m  
   22.89000n    949.8074m    648.7258m     -6.7880m      1.0000       1.0000     144.2391m  
   22.90000n    947.6210m    658.5795m     -2.7879m      1.0000       1.0000     167.0694m  
   22.91000n    945.4346m    668.4332m      1.2123m      1.0000       1.0000     189.8997m  
   22.92000n    943.2483m    678.2869m      5.2124m      1.0000       1.0000     212.7301m  
   22.93000n    940.9221m    687.4453m      9.6913m      1.0000       1.0000     241.4950m  
   22.94000n    938.2959m    695.1121m     15.1975m      1.0000       1.0000     282.9950m  
   22.95000n    935.6698m    702.7788m     20.7038m      1.0000       1.0000     324.4950m  
   22.96000n    933.0436m    710.4455m     26.2101m      1.0000       1.0000     365.9950m  
   22.97000n    930.4175m    718.1122m     31.7163m      1.0000       1.0000     407.4950m  
   22.98000n    927.7913m    725.7789m     37.2226m      1.0000       1.0000     448.9949m  
   22.99000n    925.1652m    733.4456m     42.7289m      1.0000       1.0000     490.4949m  
   23.00000n    922.5390m    741.1123m     48.2351m      1.0000       1.0000     531.9949m  
   23.01000n    919.1599m    747.9379m     54.5082m      1.0000       1.0000     580.5780m  
   23.02000n    915.7008m    754.7315m     61.2531m      1.0000       1.0000     629.1612m  
   23.03000n    911.8563m    761.4075m     68.9725m      1.0000       1.0000     670.2724m  
   23.04000n    907.9296m    768.0591m     76.8793m      1.0000       1.0000     709.6688m  
   23.05000n    904.0028m    774.7107m     84.7862m      1.0000       1.0000     749.0651m  
   23.06000n    899.3731m    781.2609m     93.8967m      1.0000       1.0000     781.6848m  
   23.07000n    894.5849m    787.7884m    103.2785m      1.0000       1.0000     812.7763m  
   23.08000n    889.7967m    794.3158m    112.6604m      1.0000       1.0000     843.8678m  
   23.09000n    885.0085m    800.8433m    122.0423m      1.0000       1.0000     874.9593m  
   23.10000n    880.1890m    807.3665m    131.4964m      1.0000       1.0000     905.3661m  
   23.11000n    874.5670m    813.7820m    142.8059m      1.0000       1.0000     918.1847m  
   23.12000n    868.9451m    820.1975m    154.1153m      1.0000       1.0000     931.0033m  
   23.13000n    863.3231m    826.6129m    165.4248m      1.0000       1.0000     943.8220m  
   23.14000n    857.7011m    833.0284m    176.7343m      1.0000       1.0000     956.6406m  
   23.15000n    852.0791m    839.4439m    188.0438m      1.0000       1.0000     969.4592m  
   23.16000n    846.4571m    845.8593m    199.3533m      1.0000       1.0000     982.2778m  
   23.17000n    840.5685m    852.0974m    211.6404m      1.0000       1.0000     986.8396m  
   23.18000n    834.6742m    858.3317m    223.9483m      1.0000       1.0000     991.2264m  
   23.19000n    828.7800m    864.5660m    236.2561m      1.0000       1.0000     995.6132m  
   23.20000n    822.8857m    870.8003m    248.5640m      1.0000       1.0000       1.0000   
   23.21000n    817.1047m    876.8548m    261.3022m      1.0000       1.0000       1.0000   
   23.22000n    811.3668m    882.8781m    274.2571m      1.0000       1.0000       1.0000   
   23.23000n    805.8040m    888.7864m    287.5608m      1.0000       1.0000       1.0000   
   23.24000n    800.2411m    894.6946m    300.8645m      1.0000       1.0000       1.0000   
   23.25000n    795.3417m    900.2101m    314.2843m      1.0000       1.0000       1.0000   
   23.26000n    790.6569m    905.5984m    327.7416m      1.0000       1.0000       1.0000   
   23.27000n    785.9721m    910.9868m    341.1990m      1.0000       1.0000       1.0000   
   23.28000n    781.2873m    916.3751m    354.6563m      1.0000       1.0000       1.0000   
   23.29000n    776.6025m    921.7634m    368.1136m      1.0000       1.0000       1.0000   
   23.30000n    771.9177m    927.1518m    381.5710m      1.0000       1.0000       1.0000   
   23.31000n    767.2329m    932.5401m    395.0283m      1.0000       1.0000       1.0000   
   23.32000n    763.1800m    937.5530m    408.2224m      1.0000       1.0000       1.0000   
   23.33000n    760.5591m    941.7150m    420.8200m      1.0000       1.0000       1.0000   
   23.34000n    757.9381m    945.8771m    433.4175m      1.0000       1.0000       1.0000   
   23.35000n    755.3172m    950.0391m    446.0151m      1.0000       1.0000       1.0000   
   23.36000n    752.6963m    954.2012m    458.6126m      1.0000       1.0000       1.0000   
   23.37000n    750.0753m    958.3632m    471.2102m      1.0000       1.0000       1.0000   
   23.38000n    747.4544m    962.5253m    483.8078m      1.0000       1.0000       1.0000   
   23.39000n    744.8334m    966.6873m    496.4053m      1.0000       1.0000       1.0000   
   23.40000n    742.2125m    970.8493m    509.0029m      1.0000       1.0000       1.0000   
   23.41000n    739.5915m    975.0114m    521.6005m      1.0000       1.0000       1.0000   
   23.42000n    737.7900m    978.7451m    533.5376m      1.0000       1.0000       1.0000   
   23.43000n    737.8454m    981.5083m    543.9781m      1.0000       1.0000       1.0000   
   23.44000n    737.9008m    984.2715m    554.4186m      1.0000       1.0000       1.0000   
   23.45000n    737.9561m    987.0346m    564.8591m      1.0000       1.0000       1.0000   
   23.46000n    738.0115m    989.7978m    575.2996m      1.0000       1.0000       1.0000   
   23.47000n    738.0669m    992.5610m    585.7401m      1.0000       1.0000       1.0000   
   23.48000n    738.1223m    995.3242m    596.1806m      1.0000       1.0000       1.0000   
   23.49000n    738.1776m    998.0873m    606.6211m      1.0000       1.0000       1.0000   
   23.50000n    738.2330m      1.0009     617.0617m      1.0000       1.0000       1.0000   
   23.51000n    738.2884m      1.0036     627.5022m      1.0000       1.0000       1.0000   
   23.52000n    738.8166m      1.0062     637.1820m      1.0000       1.0000       1.0000   
   23.53000n    740.4164m      1.0085     645.1382m      1.0000       1.0000       1.0000   
   23.54000n    742.0161m      1.0108     653.0943m      1.0000       1.0000       1.0000   
   23.55000n    743.6159m      1.0131     661.0505m      1.0000       1.0000       1.0000   
   23.56000n    745.2156m      1.0154     669.0067m      1.0000       1.0000       1.0000   
   23.57000n    746.8154m      1.0177     676.9628m      1.0000       1.0000       1.0000   
   23.58000n    748.4151m      1.0200     684.9190m      1.0000       1.0000       1.0000   
   23.59000n    750.0149m      1.0223     692.8752m      1.0000       1.0000       1.0000   
   23.60000n    751.6146m      1.0246     700.8313m      1.0000       1.0000       1.0000   
   23.61000n    753.2144m      1.0268     708.7875m      1.0000       1.0000       1.0000   
   23.62000n    752.6749m      1.0293     716.3313m    986.8132m      1.0000       1.0000   
   23.63000n    747.2878m      1.0322     722.9406m    943.7441m      1.0000       1.0000   
   23.64000n    741.9006m      1.0351     729.5499m    900.6750m      1.0000       1.0000   
   23.65000n    736.5135m      1.0380     736.1592m    857.6058m      1.0000       1.0000   
   23.66000n    731.1263m      1.0408     742.7685m    814.5367m      1.0000       1.0000   
   23.67000n    725.7392m      1.0437     749.3778m    771.4676m      1.0000       1.0000   
   23.68000n    720.3520m      1.0466     755.9871m    728.3985m      1.0000       1.0000   
   23.69000n    714.9649m      1.0495     762.5964m    685.3294m      1.0000       1.0000   
   23.70000n    709.5777m      1.0524     769.2057m    642.2603m      1.0000       1.0000   
   23.71000n    704.1906m      1.0552     775.8150m    599.1912m      1.0000       1.0000   
   23.72000n    695.2239m      1.0582     782.3245m    554.0000m      1.0000       1.0000   
   23.73000n    678.1456m      1.0614     788.6076m    504.0000m      1.0000       1.0000   
   23.74000n    661.0674m      1.0646     794.8908m    454.0000m      1.0000       1.0000   
   23.75000n    643.9891m      1.0678     801.1740m    404.0000m      1.0000       1.0000   
   23.76000n    626.9109m      1.0710     807.4572m    354.0000m      1.0000       1.0000   
   23.77000n    609.8326m      1.0741     813.7404m    304.0000m      1.0000       1.0000   
   23.78000n    592.7544m      1.0773     820.0236m    254.0000m      1.0000       1.0000   
   23.79000n    575.6761m      1.0805     826.3067m    204.0000m      1.0000       1.0000   
   23.80000n    553.8643m      1.0835     832.4775m    154.0000m      1.0000       1.0000   
   23.81000n    531.3389m      1.0864     838.6295m    104.0000m      1.0000       1.0000   
   23.82000n    507.8815m      1.0891     844.6717m     54.0000m      1.0000       1.0000   
   23.83000n    485.5164m      1.0915     850.5683m     35.6115m      1.0000       1.0000   
   23.84000n    463.3729m      1.0938     856.4354m     23.6350m      1.0000       1.0000   
   23.85000n    441.2293m      1.0960     862.3025m     11.6584m      1.0000       1.0000   
   23.86000n    419.1574m      1.0983     868.1614m      0.           1.0000       1.0000   
   23.87000n    399.7111m      1.0998     873.7201m      0.           1.0000       1.0000   
   23.88000n    380.2649m      1.1013     879.2789m      0.           1.0000       1.0000   
   23.89000n    360.8186m      1.1028     884.8376m      0.           1.0000       1.0000   
   23.90000n    342.7676m      1.1039     890.1984m      0.           1.0000       1.0000   
   23.91000n    326.1623m      1.1045     895.3540m      0.           1.0000       1.0000   
   23.92000n    309.5569m      1.1051     900.5096m      0.           1.0000       1.0000   
   23.93000n    292.9516m      1.1057     905.6652m      0.           1.0000       1.0000   
   23.94000n    277.6985m      1.1059     910.5344m      0.           1.0000       1.0000   
   23.95000n    264.7644m      1.1052     914.9122m      0.           1.0000       1.0000   
   23.96000n    251.8303m      1.1046     919.2900m      0.           1.0000       1.0000   
   23.97000n    238.8962m      1.1039     923.6678m      0.           1.0000       1.0000   
   23.98000n    225.9622m      1.1032     928.0456m      0.           1.0000       1.0000   
   23.99000n    213.0281m      1.1025     932.4234m      0.           1.0000       1.0000   
   24.00000n    200.0940m      1.1019     936.8012m      0.           1.0000       1.0000   
   24.01000n    188.1262m      1.1008     941.0055m      0.           1.0000       1.0000   
   24.02000n    177.9325m      1.0991     944.8916m      0.           1.0000       1.0000   
   24.03000n    168.3812m      1.0972     948.5527m      0.           1.0000       1.0000   
   24.04000n    160.1544m      1.0947     951.7500m      0.           1.0000       1.0000   
   24.05000n    151.9276m      1.0922     954.9473m      0.           1.0000       1.0000   
   24.06000n    143.7008m      1.0897     958.1446m      0.           1.0000       1.0000   
   24.07000n    135.4740m      1.0872     961.3418m      0.           1.0000       1.0000   
   24.08000n    127.2472m      1.0847     964.5391m      0.           1.0000       1.0000   
   24.09000n    119.0204m      1.0822     967.7364m      0.           1.0000       1.0000   
   24.10000n    113.0592m      1.0789     970.3575m      0.           1.0000       1.0000   
   24.11000n    107.5193m      1.0754     972.8715m      0.           1.0000       1.0000   
   24.12000n    101.9795m      1.0720     975.3854m      0.           1.0000       1.0000   
   24.13000n     96.4396m      1.0685     977.8994m      0.           1.0000       1.0000   
   24.14000n     90.8997m      1.0650     980.4133m      0.           1.0000       1.0000   
   24.15000n     85.3599m      1.0615     982.9273m      0.           1.0000       1.0000   
   24.16000n     79.8200m      1.0581     985.4412m      0.           1.0000       1.0000   
   24.17000n     74.2801m      1.0546     987.9552m      0.           1.0000       1.0000   
   24.18000n     68.7403m      1.0511     990.4691m      0.           1.0000       1.0000   
   24.19000n     63.2004m      1.0476     992.9831m      0.           1.0000       1.0000   
   24.20000n     59.0775m      1.0436     995.5833m      0.         984.0830m      1.0000   
   24.21000n     55.2181m      1.0395     998.1996m      0.         965.2058m      1.0000   
   24.22000n     51.3587m      1.0353       1.0008       0.         946.3287m      1.0000   
   24.23000n     47.4993m      1.0312       1.0034       0.         927.4516m      1.0000   
   24.24000n     43.6399m      1.0271       1.0060       0.         908.5744m      1.0000   
   24.25000n     39.7804m      1.0230       1.0087       0.         889.6973m      1.0000   
   24.26000n     35.9210m      1.0188       1.0113       0.         870.8202m      1.0000   
   24.27000n     32.0616m      1.0147       1.0139       0.         851.9430m      1.0000   
   24.28000n     28.2022m      1.0106       1.0165       0.         833.0659m      1.0000   
   24.29000n     24.3428m      1.0064       1.0191       0.         814.1887m      1.0000   
   24.30000n     21.1564m      1.0011       1.0222       0.         772.5656m      1.0000   
   24.31000n     18.0951m    995.4421m      1.0254       0.         726.7123m      1.0000   
   24.32000n     15.0337m    989.8263m      1.0285       0.         680.8591m      1.0000   
   24.33000n     11.9724m    984.2105m      1.0317       0.         635.0059m      1.0000   
   24.34000n      8.9111m    978.5948m      1.0348       0.         589.1526m      1.0000   
   24.35000n      5.8498m    972.9790m      1.0380       0.         543.2994m      1.0000   
   24.36000n      2.7885m    967.3632m      1.0411       0.         497.4461m      1.0000   
   24.37000n   -272.8132u    961.7475m      1.0443       0.         451.5929m      1.0000   
   24.38000n     -3.3341m    956.1317m      1.0474       0.         405.7396m      1.0000   
   24.39000n     -6.1298m    949.6652m      1.0506       0.         358.0000m      1.0000   
   24.40000n     -8.6071m    942.1791m      1.0540       0.         308.0000m      1.0000   
   24.41000n    -10.6547m    933.5028m      1.0569       0.         258.0000m      1.0000   
   24.42000n    -12.6465m    924.6722m      1.0599       0.         208.0000m      1.0000   
   24.43000n    -14.6383m    915.8416m      1.0628       0.         158.0000m      1.0000   
   24.44000n    -16.6301m    907.0110m      1.0658       0.         108.0000m      1.0000   
   24.45000n    -18.6219m    898.1804m      1.0687       0.          58.0000m      1.0000   
   24.46000n    -19.7383m    887.2078m      1.0712       0.          39.3416m      1.0000   
   24.47000n    -20.7149m    875.8933m      1.0736       0.          25.6841m      1.0000   
   24.48000n    -21.6340m    864.4733m      1.0759       0.          12.7683m      1.0000   
   24.49000n    -22.4466m    852.8581m      1.0780       0.           1.2242m      1.0000   
   24.50000n    -22.6589m    840.3385m      1.0794       0.           0.           1.0000   
   24.51000n    -22.8001m    827.7115m      1.0807       0.           0.           1.0000   
   24.52000n    -22.9413m    815.0846m      1.0821       0.           0.           1.0000   
   24.53000n    -23.0824m    802.4576m      1.0834       0.           0.           1.0000   
   24.54000n    -22.9648m    789.5502m      1.0845       0.           0.           1.0000   
   24.55000n    -21.9883m    775.7119m      1.0846       0.           0.           1.0000   
   24.56000n    -21.0117m    761.8736m      1.0846       0.           0.           1.0000   
   24.57000n    -20.0352m    748.0353m      1.0847       0.           0.           1.0000   
   24.58000n    -19.0586m    734.1970m      1.0848       0.           0.           1.0000   
   24.59000n    -18.0821m    720.3587m      1.0849       0.           0.           1.0000   
   24.60000n    -17.1055m    706.5203m      1.0850       0.           0.           1.0000   
   24.61000n    -15.6882m    692.4652m      1.0845       0.           0.           1.0000   
   24.62000n    -13.7085m    678.1335m      1.0831       0.           0.           1.0000   
   24.63000n    -11.7288m    663.8018m      1.0818       0.           0.           1.0000   
   24.64000n     -9.7491m    649.4701m      1.0805       0.           0.           1.0000   
   24.65000n     -7.7694m    635.1384m      1.0792       0.           0.           1.0000   
   24.66000n     -5.7897m    620.8067m      1.0779       0.           0.           1.0000   
   24.67000n     -3.8100m    606.4750m      1.0766       0.           0.           1.0000   
   24.68000n     -1.3395m    592.9362m      1.0740       0.           0.           1.0000   
   24.69000n      1.1494m    579.4272m      1.0714       0.           0.           1.0000   
   24.70000n      3.6383m    565.9181m      1.0688       0.           0.           1.0000   
   24.71000n      6.1272m    552.4090m      1.0661       0.           0.           1.0000   
   24.72000n      8.6161m    538.9000m      1.0635       0.           0.           1.0000   
   24.73000n     11.1050m    525.3909m      1.0608       0.           0.           1.0000   
   24.74000n     13.5939m    511.8818m      1.0582       0.           0.           1.0000   
   24.75000n     16.0828m    498.3728m      1.0556       0.           0.           1.0000   
   24.76000n     18.5717m    484.8637m      1.0529       0.           0.           1.0000   
   24.77000n     21.0606m    471.3546m      1.0503       0.           0.           1.0000   
   24.78000n     23.4434m    459.9390m      1.0468       0.           0.         991.2673m  
   24.79000n     25.8222m    448.6018m      1.0432       0.           0.         982.2076m  
   24.80000n     28.2010m    437.2645m      1.0396       0.           0.         973.1479m  
   24.81000n     30.5799m    425.9273m      1.0361       0.           0.         964.0883m  
   24.82000n     32.9587m    414.5900m      1.0325       0.           0.         955.0286m  
   24.83000n     35.3375m    403.2528m      1.0290       0.           0.         945.9690m  
   24.84000n     37.7164m    391.9155m      1.0254       0.           0.         936.9093m  
   24.85000n     40.0952m    380.5783m      1.0218       0.           0.         927.8496m  
   24.86000n     42.4740m    369.2410m      1.0183       0.           0.         918.7900m  
   24.87000n     44.8528m    357.9038m      1.0147       0.           0.         909.7303m  
   24.88000n     47.2245m    349.0933m      1.0101       0.           0.         878.7281m  
   24.89000n     49.5960m    340.3775m      1.0055       0.           0.         846.9043m  
   24.90000n     51.9674m    331.6616m      1.0008       0.           0.         815.0806m  
   24.91000n     54.3388m    322.9457m    996.2016m      0.           0.         783.2569m  
   24.92000n     56.7103m    314.2298m    991.5608m      0.           0.         751.4332m  
   24.93000n     59.0817m    305.5140m    986.9200m      0.           0.         719.6095m  
   24.94000n     61.4531m    296.7981m    982.2792m      0.           0.         687.7858m  
   24.95000n     63.8246m    288.0822m    977.6385m      0.           0.         655.9620m  
   24.96000n     66.1960m    279.3663m    972.9977m      0.           0.         624.1383m  
   24.97000n     68.5674m    270.6505m    968.3569m      0.           0.         592.3146m  
   24.98000n     71.3225m    263.3850m    962.9383m      0.           0.         546.9676m  
   24.99000n     74.0919m    256.1739m    957.4906m      0.           0.         501.1144m  
   25.00000n     76.9670m    249.0956m    951.7909m      0.           0.         455.2611m  
   25.01000n     80.1638m    242.3223m    945.2455m      0.           0.         409.4079m  
   25.02000n     83.5284m    235.6429m    938.1995m      0.           0.         361.7761m  
   25.03000n     87.4616m    229.1291m    930.3089m      0.           0.         312.0000m  
   25.04000n     91.4593m    222.6336m    922.3239m      0.           0.         262.0000m  
   25.05000n     95.4570m    216.1380m    914.3388m      0.           0.         212.0000m  
   25.06000n    100.3556m    209.7921m    904.6877m      0.           0.         175.8578m  
   25.07000n    105.5855m    203.5013m    894.4239m      0.           0.         144.8114m  
   25.08000n    110.8154m    197.2105m    884.1600m      0.           0.         113.7650m  
   25.09000n    116.0452m    190.9197m    873.8962m      0.           0.          82.7186m  
   25.10000n    121.2751m    184.6288m    863.6324m      0.           0.          51.6723m  
   25.11000n    126.5050m    178.3380m    853.3685m      0.           0.          20.6259m  
   25.12000n    132.3060m    172.1302m    842.1334m      0.           0.           7.7662m  
   25.13000n    138.4222m    165.9682m    830.3625m      0.           0.           4.9402m  
   25.14000n    144.5384m    159.8062m    818.5915m      0.           0.           2.1142m  
   25.15000n    150.6672m    153.6811m    806.5525m      0.           0.           0.       
   25.16000n    156.8334m    147.6654m    793.7171m      0.           0.           0.       
   25.17000n    162.9996m    141.6497m    780.8817m      0.           0.           0.       
   25.18000n    169.1659m    135.6340m    768.0463m      0.           0.           0.       
   25.19000n    175.3321m    129.6183m    755.2109m      0.           0.           0.       
   25.20000n    181.4984m    123.6026m    742.3755m      0.           0.           0.       
   25.21000n    187.4904m    117.7368m    729.0409m      0.           0.           0.       
   25.22000n    193.3433m    111.9372m    715.4773m      0.           0.           0.       
   25.23000n    199.0735m    106.1960m    701.9066m      0.           0.           0.       
   25.24000n    204.8037m    100.4548m    688.3359m      0.           0.           0.       
   25.25000n    209.4985m     95.2105m    674.7608m      0.           0.           0.       
   25.26000n    214.1885m     89.9686m    661.1857m      0.           0.           0.       
   25.27000n    218.8786m     84.7266m    647.6106m      0.           0.           0.       
   25.28000n    223.5686m     79.4846m    634.0355m      0.           0.           0.       
   25.29000n    228.2587m     74.2426m    620.4604m      0.           0.           0.       
   25.30000n    232.9487m     69.0007m    606.8852m      0.           0.           0.       
   25.31000n    237.6388m     63.7587m    593.3101m      0.           0.           0.       
   25.32000n    242.0815m     58.6433m    579.8490m      0.           0.           0.       
   25.33000n    244.5142m     54.5565m    567.3143m      0.           0.           0.       
   25.34000n    246.9469m     50.4697m    554.7796m      0.           0.           0.       
   25.35000n    249.3796m     46.3829m    542.2449m      0.           0.           0.       
   25.36000n    251.8123m     42.2960m    529.7102m      0.           0.           0.       
   25.37000n    254.2450m     38.2092m    517.1754m      0.           0.           0.       
   25.38000n    256.6777m     34.1224m    504.6407m      0.           0.           0.       
   25.39000n    259.1104m     30.0356m    492.1060m      0.           0.           0.       
   25.40000n    261.5431m     25.9488m    479.5713m      0.           0.           0.       
   25.41000n    263.9758m     21.8620m    467.0366m      0.           0.           0.       
   25.42000n    266.1169m     17.9221m    454.7391m      0.           0.           0.       
   25.43000n    265.8885m     15.1758m    444.3697m      0.           0.           0.       
   25.44000n    265.6600m     12.4295m    434.0002m      0.           0.           0.       
   25.45000n    265.4316m      9.6833m    423.6307m      0.           0.           0.       
   25.46000n    265.2031m      6.9370m    413.2612m      0.           0.           0.       
   25.47000n    264.9746m      4.1908m    402.8917m      0.           0.           0.       
   25.48000n    264.7462m      1.4445m    392.5222m      0.           0.           0.       
   25.49000n    264.5177m     -1.3018m    382.1528m      0.           0.           0.       
   25.50000n    264.2893m     -4.0480m    371.7833m      0.           0.           0.       
   25.51000n    264.0608m     -6.7943m    361.4138m      0.           0.           0.       
   25.52000n    263.6210m     -9.4792m    351.3032m      0.           0.           0.       
   25.53000n    261.4635m    -11.6655m    343.2968m      0.           0.           0.       
   25.54000n    259.3059m    -13.8519m    335.2905m      0.           0.           0.       
   25.55000n    257.1484m    -16.0382m    327.2841m      0.           0.           0.       
   25.56000n    254.9909m    -18.2245m    319.2777m      0.           0.           0.       
   25.57000n    252.8333m    -20.4108m    311.2713m      0.           0.           0.       
   25.58000n    250.6758m    -22.5971m    303.2649m      0.           0.           0.       
   25.59000n    248.5183m    -24.7835m    295.2585m      0.           0.           0.       
   25.60000n    246.3607m    -26.9698m    287.2521m      0.           0.           0.       
   25.61000n    244.3045m    -29.1685m    279.2709m    547.8026u      0.           0.       
   25.62000n    247.1222m    -31.9650m    272.4976m     27.4394m      0.           0.       
   25.63000n    249.9399m    -34.7614m    265.7244m     54.3309m      0.           0.       
   25.64000n    252.7575m    -37.5579m    258.9512m     81.2225m      0.           0.       
   25.65000n    255.5752m    -40.3544m    252.1780m    108.1140m      0.           0.       
   25.66000n    259.2488m    -43.2405m    245.5822m    146.0000m      0.           0.       
   25.67000n    263.8654m    -46.2255m    239.1820m    196.0000m      0.           0.       
   25.68000n    269.8489m    -49.2862m    232.8301m    246.0000m      0.           0.       
   25.69000n    281.3946m    -52.6552m    226.6748m    296.0000m      0.           0.       
   25.70000n    292.9403m    -56.0242m    220.5196m    346.0000m      0.           0.       
   25.71000n    304.4861m    -59.3932m    214.3644m    396.0000m      0.           0.       
   25.72000n    316.0318m    -62.7622m    208.2091m    446.0000m      0.           0.       
   25.73000n    327.5775m    -66.1311m    202.0539m    496.0000m      0.           0.       
   25.74000n    339.1233m    -69.5001m    195.8987m    546.0000m      0.           0.       
   25.75000n    350.6690m    -72.8691m    189.7434m    596.0000m      0.           0.       
   25.76000n    369.5903m    -76.1308m    183.7582m    646.0000m      0.           0.       
   25.77000n    389.2763m    -79.3813m    177.7907m    696.0000m      0.           0.       
   25.78000n    408.9623m    -82.6319m    171.8231m    746.0000m      0.           0.       
   25.79000n    428.6484m    -85.8824m    165.8555m    796.0000m      0.           0.       
   25.80000n    448.3344m    -89.1329m    159.8880m    846.0000m      0.           0.       
   25.81000n    468.2118m    -91.6518m    154.1431m    877.0202m      0.           0.       
   25.82000n    488.2713m    -93.4745m    148.6102m    889.9824m      0.           0.       
   25.83000n    508.3307m    -95.2971m    143.0773m    902.9446m      0.           0.       
   25.84000n    528.3902m    -97.1198m    137.5444m    915.9069m      0.           0.       
   25.85000n    548.4496m    -98.9425m    132.0115m    928.8691m      0.           0.       
   25.86000n    568.5090m   -100.7652m    126.4786m    941.8313m      0.           0.       
   25.87000n    588.5685m   -102.5878m    120.9457m    954.7935m      0.           0.       
   25.88000n    608.6279m   -104.4105m    115.4128m    967.7558m      0.           0.       
   25.89000n    628.6874m   -106.2332m    109.8799m    980.7180m      0.           0.       
   25.90000n    648.7468m   -108.0559m    104.3469m    993.6802m      0.           0.       
   25.91000n    666.3495m   -108.9058m     99.2038m      1.0000       0.           0.       
   25.92000n    681.6146m   -108.8301m     94.4314m      1.0000       0.           0.       
   25.93000n    696.8798m   -108.7545m     89.6590m      1.0000       0.           0.       
   25.94000n    712.1450m   -108.6788m     84.8867m      1.0000       0.           0.       
   25.95000n    727.4101m   -108.6032m     80.1143m      1.0000       0.           0.       
   25.96000n    742.6753m   -108.5276m     75.3419m      1.0000       0.           0.       
   25.97000n    757.9405m   -108.4519m     70.5696m      1.0000       0.           0.       
   25.98000n    769.4324m   -106.9470m     66.5655m      1.0000       0.           0.       
   25.99000n    780.8689m   -105.4210m     62.5727m      1.0000       0.           0.       
   26.00000n    792.3055m   -103.8951m     58.5799m      1.0000       0.           0.       
   26.01000n    803.7420m   -102.3691m     54.5871m      1.0000       0.           0.       
   26.02000n    815.1786m   -100.8432m     50.5943m      1.0000       0.           0.       
   26.03000n    826.1330m    -99.1361m     46.7387m      1.0000       0.           0.       
   26.04000n    833.8585m    -96.2167m     43.8015m      1.0000       0.           0.       
   26.05000n    841.5841m    -93.2972m     40.8644m      1.0000       0.           0.       
   26.06000n    849.3097m    -90.3777m     37.9273m      1.0000       0.           0.       
   26.07000n    857.0353m    -87.4582m     34.9902m      1.0000       0.           0.       
   26.08000n    864.7609m    -84.5387m     32.0531m      1.0000       0.           0.       
   26.09000n    872.4865m    -81.6192m     29.1160m      1.0000       0.           0.       
   26.10000n    880.2120m    -78.6997m     26.1788m      1.0000       0.           0.       
   26.11000n    887.9376m    -75.7802m     23.2417m      1.0000       0.           0.       
   26.12000n    895.6632m    -72.8607m     20.3046m      1.0000       0.           0.       
   26.13000n    903.0075m    -69.8313m     17.4410m      1.0000       0.           0.       
   26.14000n    907.7989m    -66.0657m     15.0693m      1.0000       0.           0.       
   26.15000n    912.5903m    -62.3000m     12.6976m      1.0000       0.           0.       
   26.16000n    917.3817m    -58.5343m     10.3259m      1.0000       0.           0.       
   26.17000n    922.1731m    -54.7687m      7.9543m      1.0000       0.           0.       
   26.18000n    926.9645m    -51.0030m      5.5826m      1.0000       0.           0.       
   26.19000n    931.7559m    -47.2374m      3.2109m      1.0000       0.           0.       
   26.20000n    936.5472m    -43.4717m    839.2645u      1.0000       0.           0.       
   26.21000n    941.3386m    -39.7061m     -1.5324m      1.0000       0.           0.       
   26.22000n    946.1300m    -35.9404m     -3.9041m      1.0000       0.           0.       
   26.23000n    950.8031m    -32.1590m     -6.2747m      1.0000       0.           0.       
   26.24000n    954.6351m    -28.2443m     -8.8568m      1.0000       4.7437m      0.       
   26.25000n    958.4127m    -24.2304m    -11.6473m      1.0000      25.2880m      0.       
   26.26000n    962.1721m    -20.1756m    -14.5076m      1.0000      52.1796m      0.       
   26.27000n    965.9221m    -16.0203m    -17.4343m      1.0000      82.6382m      0.       
   26.28000n    969.6541m    -11.6725m    -20.4884m      1.0000     119.9290m      0.       
   26.29000n    973.3862m     -7.3247m    -23.5425m      1.0000     157.2198m      0.       
   26.30000n    977.1182m     -2.9768m    -26.5966m      1.0000     194.5106m      0.       
   26.31000n    980.7429m      1.9266m    -29.8975m      1.0000     242.0000m      0.       
   26.32000n    984.3412m      6.9667m    -33.2592m      1.0000     292.0000m      0.       
   26.33000n    987.9395m     12.0069m    -36.6209m      1.0000     342.0000m      0.       
   26.34000n    991.5378m     17.0470m    -39.9826m      1.0000     392.0000m      0.       
   26.35000n    994.7820m     23.0573m    -43.3802m      1.0000     442.0000m      0.       
   26.36000n    997.6585m     30.0751m    -46.8149m      1.0000     492.0000m      0.       
   26.37000n      1.0005      37.0929m    -50.2497m      1.0000     542.0000m      0.       
   26.38000n      1.0034      44.1108m    -53.6844m      1.0000     592.0000m      0.       
   26.39000n      1.0063      51.1286m    -57.1192m      1.0000     642.0000m      0.       
   26.40000n      1.0092      58.1464m    -60.5539m      1.0000     692.0000m      0.       
   26.41000n      1.0120      65.1642m    -63.9887m      1.0000     742.0000m      0.       
   26.42000n      1.0142      73.7699m    -66.9068m      1.0000     778.1104m      0.       
   26.43000n      1.0157      83.7677m    -69.3719m      1.0000     802.0421m      0.       
   26.44000n      1.0171      93.7656m    -71.8370m      1.0000     825.9738m      0.       
   26.45000n      1.0186     103.7635m    -74.3021m      1.0000     849.9054m      0.       
   26.46000n      1.0201     113.7614m    -76.7672m      1.0000     873.8371m      0.       
   26.47000n      1.0216     123.7592m    -79.2323m      1.0000     897.7688m      0.       
   26.48000n      1.0231     133.7571m    -81.6975m      1.0000     921.7005m      0.       
   26.49000n      1.0240     144.6632m    -83.8258m      1.0000     940.7943m      0.       
   26.50000n      1.0243     156.7205m    -85.5273m      1.0000     953.7566m      0.       
   26.51000n      1.0247     168.7778m    -87.2289m      1.0000     966.7188m      0.       
   26.52000n      1.0243     181.5715m    -88.0861m      1.0000     974.3333m      0.       
   26.53000n      1.0234     195.0110m    -88.2029m      1.0000     977.2588m      0.       
   26.54000n      1.0225     208.4505m    -88.3198m      1.0000     980.1843m      0.       
   26.55000n      1.0216     221.8900m    -88.4366m      1.0000     983.1098m      0.       
   26.56000n      1.0206     235.3295m    -88.5535m      1.0000     986.0353m      0.       
   26.57000n      1.0197     248.7690m    -88.6703m      1.0000     988.9607m      0.       
   26.58000n      1.0188     262.2084m    -88.7871m      1.0000     991.8862m      0.       
   26.59000n      1.0179     275.6479m    -88.9040m      1.0000     994.8117m      0.       
   26.60000n      1.0170     289.0874m    -89.0208m      1.0000     997.7372m      0.       
   26.61000n      1.0158     302.7177m    -88.7899m      1.0000       1.0000       0.       
   26.62000n      1.0136     316.9992m    -87.3713m      1.0000       1.0000       0.       
   26.63000n      1.0115     331.2807m    -85.9526m      1.0000       1.0000       0.       
   26.64000n      1.0093     345.5622m    -84.5340m      1.0000       1.0000       0.       
   26.65000n      1.0072     359.8437m    -83.1154m      1.0000       1.0000       0.       
   26.66000n      1.0050     374.1252m    -81.6968m      1.0000       1.0000       0.       
   26.67000n      1.0028     388.3087m    -79.9918m      1.0000       1.0000       0.       
   26.68000n      1.0002     402.1784m    -77.3704m      1.0000       1.0000       0.       
   26.69000n    997.5852m    416.0480m    -74.7490m      1.0000       1.0000       0.       
   26.70000n    994.9830m    429.9177m    -72.1276m      1.0000       1.0000       0.       
   26.71000n    992.3807m    443.7874m    -69.5061m      1.0000       1.0000       0.       
   26.72000n    989.7785m    457.6571m    -66.8847m      1.0000       1.0000       0.       
   26.73000n    987.1763m    471.5268m    -64.2633m      1.0000       1.0000       0.       
   26.74000n    984.6040m    485.1418m    -61.5315m      1.0000       1.0000       0.       
   26.75000n    982.2005m    497.3172m    -58.1755m      1.0000       1.0000       0.       
   26.76000n    979.7971m    509.4927m    -54.8195m      1.0000       1.0000       0.       
   26.77000n    977.3936m    521.6681m    -51.4635m      1.0000       1.0000       0.       
   26.78000n    974.9902m    533.8436m    -48.1075m      1.0000       1.0000       0.       
   26.79000n    972.5867m    546.0190m    -44.7514m      1.0000       1.0000       0.       
   26.80000n    970.1833m    558.1944m    -41.3954m      1.0000       1.0000       0.       
   26.81000n    967.7799m    570.3699m    -38.0394m      1.0000       1.0000       0.       
   26.82000n    965.3764m    582.5453m    -34.6834m      1.0000       1.0000       0.       
   26.83000n    962.9730m    594.7208m    -31.3274m      1.0000       1.0000       0.       
   26.84000n    960.6139m    606.4793m    -27.8765m      1.0000       1.0000       3.4643m  
   26.85000n    958.5057m    615.8810m    -23.8891m      1.0000       1.0000      26.5128m  
   26.86000n    956.3975m    625.2827m    -19.9017m      1.0000       1.0000      49.5612m  
   26.87000n    954.2893m    634.6844m    -15.9142m      1.0000       1.0000      72.6097m  
   26.88000n    952.1811m    644.0861m    -11.9268m      1.0000       1.0000      95.6582m  
   26.89000n    950.0729m    653.4878m     -7.9394m      1.0000       1.0000     118.7067m  
   26.90000n    947.9647m    662.8895m     -3.9520m      1.0000       1.0000     141.7552m  
   26.91000n    945.8565m    672.2912m     35.4422u      1.0000       1.0000     164.8036m  
   26.92000n    943.7483m    681.6929m      4.0229m      1.0000       1.0000     187.8521m  
   26.93000n    941.6401m    691.0946m      8.0103m      1.0000       1.0000     210.9006m  
   26.94000n    939.4476m    700.1933m     12.2347m      1.0000       1.0000     238.0000m  
   26.95000n    936.7789m    707.5790m     17.7988m      1.0000       1.0000     288.0000m  
   26.96000n    934.1103m    714.9646m     23.3628m      1.0000       1.0000     338.0000m  
   26.97000n    931.4416m    722.3502m     28.9269m      1.0000       1.0000     388.0000m  
   26.98000n    928.7729m    729.7359m     34.4910m      1.0000       1.0000     438.0000m  
   26.99000n    926.1042m    737.1215m     40.0550m      1.0000       1.0000     488.0000m  
   27.00000n    923.4356m    744.5072m     45.6191m      1.0000       1.0000     538.0000m  
   27.01000n    919.9252m    751.2676m     52.1051m      1.0000       1.0000     588.0000m  
   27.02000n    916.3198m    758.0078m     59.0210m      1.0000       1.0000     638.0000m  
   27.03000n    912.2578m    764.6565m     66.8984m      1.0000       1.0000     685.0456m  
   27.04000n    908.1376m    771.2936m     74.8879m      1.0000       1.0000     731.6863m  
   27.05000n    903.9227m    777.9183m     83.0609m      1.0000       1.0000     776.1959m  
   27.06000n    898.7933m    784.4244m     93.0054m      1.0000       1.0000     800.1276m  
   27.07000n    893.6638m    790.9305m    102.9498m      1.0000       1.0000     824.0592m  
   27.08000n    888.5344m    797.4365m    112.8943m      1.0000       1.0000     847.9909m  
   27.09000n    883.4050m    803.9426m    122.8388m      1.0000       1.0000     871.9226m  
   27.10000n    878.2756m    810.4487m    132.7833m      1.0000       1.0000     895.8543m  
   27.11000n    873.1461m    816.9548m    142.7277m      1.0000       1.0000     919.7860m  
   27.12000n    867.4293m    823.3564m    154.0493m      1.0000       1.0000     933.0689m  
   27.13000n    861.4501m    829.7113m    165.9859m      1.0000       1.0000     941.5960m  
   27.14000n    855.4709m    836.0662m    177.9225m      1.0000       1.0000     950.1231m  
   27.15000n    849.4917m    842.4212m    189.8591m      1.0000       1.0000     958.6502m  
   27.16000n    843.5125m    848.7761m    201.7957m      1.0000       1.0000     967.1772m  
   27.17000n    837.5332m    855.1311m    213.7323m      1.0000       1.0000     975.7043m  
   27.18000n    831.5218m    861.4506m    225.8944m      1.0000       1.0000     982.8757m  
   27.19000n    825.4095m    867.6593m    238.7625m      1.0000       1.0000     985.8012m  
   27.20000n    819.2973m    873.8679m    251.6306m      1.0000       1.0000     988.7267m  
   27.21000n    813.3502m    879.9626m    264.9245m      1.0000       1.0000     991.6522m  
   27.22000n    807.4955m    886.0106m    278.4285m      1.0000       1.0000     994.5777m  
   27.23000n    801.8252m    891.9601m    291.9371m      1.0000       1.0000     997.0244m  
   27.24000n    796.4078m    897.7693m    305.5095m      1.0000       1.0000     998.0369m  
   27.25000n    790.9904m    903.5784m    319.0820m      1.0000       1.0000     999.0494m  
   27.26000n    785.6443m    909.3469m    332.6517m      1.0000       1.0000       1.0000   
   27.27000n    781.3943m    914.4911m    346.1797m      1.0000       1.0000       1.0000   
   27.28000n    777.1443m    919.6353m    359.7078m      1.0000       1.0000       1.0000   
   27.29000n    772.8943m    924.7795m    373.2359m      1.0000       1.0000       1.0000   
   27.30000n    768.6443m    929.9238m    386.7640m      1.0000       1.0000       1.0000   
   27.31000n    764.3943m    935.0680m    400.2920m      1.0000       1.0000       1.0000   
   27.32000n    760.1443m    940.2122m    413.8201m      1.0000       1.0000       1.0000   
   27.33000n    755.8943m    945.3564m    427.3482m      1.0000       1.0000       1.0000   
   27.34000n    752.1352m    950.2051m    440.5978m      1.0000       1.0000       1.0000   
   27.35000n    750.2069m    953.9515m    452.8091m      1.0000       1.0000       1.0000   
   27.36000n    748.2785m    957.6979m    465.0204m      1.0000       1.0000       1.0000   
   27.37000n    746.3502m    961.4443m    477.2316m      1.0000       1.0000       1.0000   
   27.38000n    744.4219m    965.1907m    489.4429m      1.0000       1.0000       1.0000   
   27.39000n    742.4936m    968.9371m    501.6542m      1.0000       1.0000       1.0000   
   27.40000n    740.5652m    972.6835m    513.8654m      1.0000       1.0000       1.0000   
   27.41000n    738.6369m    976.4299m    526.0767m      1.0000       1.0000       1.0000   
   27.42000n    736.7086m    980.1763m    538.2879m      1.0000       1.0000       1.0000   
   27.43000n    734.7802m    983.9227m    550.4992m      1.0000       1.0000       1.0000   
   27.44000n    733.1824m    987.4634m    562.5806m      1.0000       1.0000       1.0000   
   27.45000n    732.9170m    990.1877m    573.9832m      1.0000       1.0000       1.0000   
   27.46000n    733.1374m    992.6727m    584.4416m      1.0000       1.0000       1.0000   
   27.47000n    733.3579m    995.1577m    594.9000m      1.0000       1.0000       1.0000   
   27.48000n    733.5783m    997.6427m    605.3585m      1.0000       1.0000       1.0000   
   27.49000n    735.0056m    999.8884m    614.2379m      1.0000       1.0000       1.0000   
   27.50000n    736.6623m      1.0021     622.8171m      1.0000       1.0000       1.0000   
   27.51000n    738.3190m      1.0043     631.3964m      1.0000       1.0000       1.0000   
   27.52000n    739.9757m      1.0065     639.9756m      1.0000       1.0000       1.0000   
   27.53000n    741.6324m      1.0087     648.5548m      1.0000       1.0000       1.0000   
   27.54000n    743.2891m      1.0109     657.1340m      1.0000       1.0000       1.0000   
   27.55000n    744.9459m      1.0131     665.7133m      1.0000       1.0000       1.0000   
   27.56000n    746.6026m      1.0153     674.2925m      1.0000       1.0000       1.0000   
   27.57000n    748.2593m      1.0175     682.8717m      1.0000       1.0000       1.0000   
   27.58000n    749.9160m      1.0197     691.4509m      1.0000       1.0000       1.0000   
   27.59000n    748.1343m      1.0223     698.5411m    978.6585m      1.0000       1.0000   
   27.60000n    745.6990m      1.0250     705.3482m    953.2598m      1.0000       1.0000   
   27.61000n    743.2637m      1.0277     712.1553m    927.8611m      1.0000       1.0000   
   27.62000n    740.8283m      1.0304     718.9624m    902.4624m      1.0000       1.0000   
   27.63000n    738.3930m      1.0332     725.7695m    877.0637m      1.0000       1.0000   
   27.64000n    735.9577m      1.0359     732.5766m    851.6650m      1.0000       1.0000   
   27.65000n    733.5223m      1.0386     739.3837m    826.2663m      1.0000       1.0000   
   27.66000n    731.0870m      1.0413     746.1908m    800.8676m      1.0000       1.0000   
   27.67000n    728.6517m      1.0440     752.9979m    775.4689m      1.0000       1.0000   
   27.68000n    726.2163m      1.0467     759.8050m    750.0702m      1.0000       1.0000   
   27.69000n    715.0378m      1.0500     766.2287m    704.0000m      1.0000       1.0000   
   27.70000n    702.1970m      1.0533     772.5796m    654.0000m      1.0000       1.0000   
   27.71000n    689.3563m      1.0567     778.9304m    604.0000m      1.0000       1.0000   
   27.72000n    676.5155m      1.0601     785.2812m    554.0000m      1.0000       1.0000   
   27.73000n    663.6748m      1.0634     791.6321m    504.0000m      1.0000       1.0000   
   27.74000n    650.8341m      1.0668     797.9829m    454.0000m      1.0000       1.0000   
   27.75000n    637.9933m      1.0702     804.3337m    404.0000m      1.0000       1.0000   
   27.76000n    625.1526m      1.0735     810.6846m    354.0000m      1.0000       1.0000   
   27.77000n    606.9246m      1.0768     816.9181m    304.0000m      1.0000       1.0000   
   27.78000n    586.2537m      1.0799     823.0984m    254.0000m      1.0000       1.0000   
   27.79000n    565.5827m      1.0831     829.2787m    204.0000m      1.0000       1.0000   
   27.80000n    544.9117m      1.0862     835.4590m    154.0000m      1.0000       1.0000   
   27.81000n    524.1878m      1.0894     841.6375m    104.0000m      1.0000       1.0000   
   27.82000n    501.0304m      1.0921     847.7071m     58.0536m      1.0000       1.0000   
   27.83000n    478.5510m      1.0946     853.6584m     36.2382m      1.0000       1.0000   
   27.84000n    456.0716m      1.0970     859.6097m     14.4228m      1.0000       1.0000   
   27.85000n    434.3820m      1.0992     865.4703m      0.           1.0000       1.0000   
   27.86000n    414.2333m      1.1009     871.1540m      0.           1.0000       1.0000   
   27.87000n    394.0847m      1.1026     876.8378m      0.           1.0000       1.0000   
   27.88000n    373.9361m      1.1043     882.5215m      0.           1.0000       1.0000   
   27.89000n    355.5232m      1.1054     887.9574m      0.           1.0000       1.0000   
   27.90000n    338.4284m      1.1061     893.2051m      0.           1.0000       1.0000   
   27.91000n    321.3336m      1.1069     898.4528m      0.           1.0000       1.0000   
   27.92000n    304.2388m      1.1076     903.7005m      0.           1.0000       1.0000   
   27.93000n    287.7561m      1.1081     908.8285m      0.           1.0000       1.0000   
   27.94000n    274.0374m      1.1076     913.4158m      0.           1.0000       1.0000   
   27.95000n    260.3186m      1.1072     918.0031m      0.           1.0000       1.0000   
   27.96000n    246.5999m      1.1067     922.5904m      0.           1.0000       1.0000   
   27.97000n    232.8812m      1.1063     927.1776m      0.           1.0000       1.0000   
   27.98000n    219.1624m      1.1058     931.7649m      0.           1.0000       1.0000   
   27.99000n    208.5869m      1.1041     935.4676m      0.           1.0000       1.0000   
   28.00000n    199.2015m      1.1020     938.8353m      0.           1.0000       1.0000   
   28.01000n    189.8162m      1.0999     942.2030m      0.           1.0000       1.0000   
   28.02000n    180.4308m      1.0978     945.5707m      0.           1.0000       1.0000   
   28.03000n    171.0454m      1.0957     948.9384m      0.           1.0000       1.0000   
   28.04000n    161.6600m      1.0935     952.3061m      0.           1.0000       1.0000   
   28.05000n    152.2747m      1.0914     955.6738m      0.           1.0000       1.0000   
   28.06000n    142.8893m      1.0893     959.0415m      0.           1.0000       1.0000   
   28.07000n    133.5039m      1.0872     962.4092m      0.           1.0000       1.0000   
   28.08000n    124.1185m      1.0851     965.7769m      0.           1.0000       1.0000   
   28.09000n    117.5056m      1.0819     968.4569m      0.           1.0000       1.0000   
   28.10000n    111.9423m      1.0784     970.8766m      0.           1.0000       1.0000   
   28.11000n    106.3791m      1.0748     973.2963m      0.           1.0000       1.0000   
   28.12000n    100.8159m      1.0713     975.7159m      0.           1.0000       1.0000   
   28.13000n     95.2527m      1.0678     978.1356m      0.           1.0000       1.0000   
   28.14000n     89.6895m      1.0642     980.5553m      0.           1.0000       1.0000   
   28.15000n     84.1262m      1.0607     982.9750m      0.           1.0000       1.0000   
   28.16000n     78.5630m      1.0571     985.3946m      0.           1.0000       1.0000   
   28.17000n     72.9998m      1.0536     987.8143m      0.           1.0000       1.0000   
   28.18000n     67.4366m      1.0500     990.2340m      0.           1.0000       1.0000   
   28.19000n     63.0078m      1.0461     992.8323m      0.         987.0395m      1.0000   
   28.20000n     59.0086m      1.0419     995.4983m      0.         969.1718m      1.0000   
   28.21000n     55.0094m      1.0378     998.1643m      0.         951.3040m      1.0000   
   28.22000n     51.0101m      1.0337       1.0008       0.         933.4363m      1.0000   
   28.23000n     47.0109m      1.0295       1.0035       0.         915.5686m      1.0000   
   28.24000n     43.0117m      1.0254       1.0062       0.         897.7008m      1.0000   
   28.25000n     39.0125m      1.0212       1.0088       0.         879.8331m      1.0000   
   28.26000n     35.0132m      1.0171       1.0115       0.         861.9653m      1.0000   
   28.27000n     31.0140m      1.0130       1.0142       0.         844.0976m      1.0000   
   28.28000n     27.0148m      1.0088       1.0168       0.         826.2298m      1.0000   
   28.29000n     23.2369m      1.0045       1.0196       0.         802.8995m      1.0000   
   28.30000n     19.6160m    999.9825m      1.0227       0.         772.3991m      1.0000   
[...]
   38.05000n    838.0538m    -95.3563m     41.0293m      1.0000       0.           0.       
   38.06000n    845.6763m    -92.3686m     38.1884m      1.0000       0.           0.       
   38.07000n    853.2988m    -89.3809m     35.3475m      1.0000       0.           0.       
   38.08000n    860.9214m    -86.3931m     32.5067m      1.0000       0.           0.       
   38.09000n    868.5439m    -83.4054m     29.6658m      1.0000       0.           0.       
   38.10000n    876.1664m    -80.4177m     26.8250m      1.0000       0.           0.       
   38.11000n    883.7889m    -77.4300m     23.9841m      1.0000       0.           0.       
   38.12000n    891.3166m    -74.4099m     21.1616m      1.0000       0.           0.       
   38.13000n    896.3617m    -70.5423m     18.8203m      1.0000       0.           0.       
   38.14000n    901.4067m    -66.6747m     16.4791m      1.0000       0.           0.       
   38.15000n    906.4517m    -62.8072m     14.1378m      1.0000       0.           0.       
   38.16000n    911.4183m    -58.9181m     11.8148m      1.0000     808.8458u      0.       
   38.17000n    916.0239m    -54.9303m      9.5762m      1.0000       5.3390m      0.       
   38.18000n    920.6295m    -50.9424m      7.3377m      1.0000       9.8691m      0.       
   38.19000n    925.2351m    -46.9546m      5.0991m      1.0000      14.3992m      0.       
   38.20000n    929.8406m    -42.9668m      2.8605m      1.0000      18.9293m      0.       
   38.21000n    934.4462m    -38.9789m    621.9516u      1.0000      23.4594m      0.       
   38.22000n    939.0518m    -34.9911m     -1.6166m      1.0000      27.9895m      0.       
   38.23000n    943.4236m    -30.7409m     -4.1461m      1.0000      42.2986m      0.       
   38.24000n    947.4406m    -26.0929m     -7.1170m      1.0000      71.4399m      0.       
   38.25000n    951.4576m    -21.4449m    -10.0878m      1.0000     100.5813m      0.       
   38.26000n    955.4746m    -16.7969m    -13.0586m      1.0000     129.7226m      0.       
   38.27000n    959.4917m    -12.1489m    -16.0294m      1.0000     158.8640m      0.       
   38.28000n    963.5087m     -7.5009m    -19.0003m      1.0000     188.0053m      0.       
   38.29000n    967.5257m     -2.8529m    -21.9711m      1.0000     217.1467m      0.       
   38.30000n    971.5427m      1.7950m    -24.9419m      1.0000     246.2881m      0.       
   38.31000n    975.5598m      6.4430m    -27.9127m      1.0000     275.4294m      0.       
   38.32000n    979.5768m     11.0910m    -30.8836m      1.0000     304.5708m      0.       
   38.33000n    983.2910m     16.5123m    -34.0389m      1.0000     341.2585m      0.       
   38.34000n    986.5459m     23.1065m    -37.4741m      1.0000     389.3923m      0.       
   38.35000n    989.8009m     29.7007m    -40.9092m      1.0000     437.5261m      0.       
   38.36000n    993.0558m     36.2949m    -44.3444m      1.0000     485.6598m      0.       
   38.37000n    996.3108m     42.8891m    -47.7796m      1.0000     533.7936m      0.       
   38.38000n    999.5657m     49.4833m    -51.2147m      1.0000     581.9274m      0.       
   38.39000n      1.0028      56.0775m    -54.6499m      1.0000     630.0612m      0.       
   38.40000n      1.0061      62.6717m    -58.0851m      1.0000     678.1950m      0.       
   38.41000n      1.0093      69.3764m    -61.4909m      1.0000     725.6930m      0.       
   38.42000n      1.0109      79.1494m    -64.0812m      1.0000     755.5385m      0.       
   38.43000n      1.0125      88.9225m    -66.6714m      1.0000     785.3840m      0.       
   38.44000n      1.0141      98.6955m    -69.2617m      1.0000     815.2295m      0.       
   38.45000n      1.0157     108.4686m    -71.8520m      1.0000     845.0750m      0.       
   38.46000n      1.0173     118.2416m    -74.4423m      1.0000     874.9205m      0.       
   38.47000n      1.0189     128.0147m    -77.0325m      1.0000     904.7660m      0.       
   38.48000n      1.0205     137.7877m    -79.6228m      1.0000     934.6115m      0.       
   38.49000n      1.0221     147.5607m    -82.2131m      1.0000     964.4571m      0.       
   38.50000n      1.0230     158.4776m    -84.1295m      1.0000     983.0084m      0.       
   38.51000n      1.0227     171.0309m    -85.0820m      1.0000     985.4018m      0.       
   38.52000n      1.0225     183.5842m    -86.0345m      1.0000     987.7953m      0.       
   38.53000n      1.0222     196.1375m    -86.9869m      1.0000     990.1888m      0.       
   38.54000n      1.0220     208.6908m    -87.9394m      1.0000     992.5822m      0.       
   38.55000n      1.0217     221.2441m    -88.8918m      1.0000     994.9757m      0.       
   38.56000n      1.0215     233.7975m    -89.8443m      1.0000     997.3692m      0.       
   38.57000n      1.0212     246.3508m    -90.7967m      1.0000     999.7626m      0.       
   38.58000n      1.0196     260.0978m    -89.9479m      1.0000       1.0000       0.       
   38.59000n      1.0178     273.9762m    -88.9007m      1.0000       1.0000       0.       
   38.60000n      1.0161     287.8546m    -87.8536m      1.0000       1.0000       0.       
   38.61000n      1.0143     301.7330m    -86.8064m      1.0000       1.0000       0.       
   38.62000n      1.0125     315.6115m    -85.7592m      1.0000       1.0000       0.       
   38.63000n      1.0108     329.4899m    -84.7121m      1.0000       1.0000       0.       
   38.64000n      1.0090     343.3683m    -83.6649m      1.0000       1.0000       0.       
   38.65000n      1.0073     357.2467m    -82.6178m      1.0000       1.0000       0.       
   38.66000n      1.0055     371.1252m    -81.5706m      1.0000       1.0000       0.       
   38.67000n      1.0037     385.0036m    -80.5235m      1.0000       1.0000       0.       
   38.68000n      1.0012     398.9390m    -78.1472m      1.0000       1.0000       0.       
   38.69000n    998.5625m    412.8807m    -75.6247m      1.0000       1.0000       0.       
   38.70000n    995.9394m    426.8223m    -73.1021m      1.0000       1.0000       0.       
   38.71000n    993.3163m    440.7640m    -70.5796m      1.0000       1.0000       0.       
   38.72000n    990.6932m    454.7056m    -68.0570m      1.0000       1.0000       0.       
   38.73000n    988.0741m    468.5589m    -65.4795m      1.0000       1.0000     104.6633u  
   38.74000n    985.5200m    480.9540m    -61.9958m      1.0000       1.0000       1.9355m  
   38.75000n    982.9659m    493.3490m    -58.5120m      1.0000       1.0000       3.7662m  
   38.76000n    980.4119m    505.7441m    -55.0283m      1.0000       1.0000       5.5970m  
   38.77000n    977.8578m    518.1392m    -51.5445m      1.0000       1.0000       7.4278m  
   38.78000n    975.3037m    530.5343m    -48.0608m      1.0000       1.0000       9.2586m  
   38.79000n    972.7497m    542.9294m    -44.5770m      1.0000       1.0000      11.0894m  
   38.80000n    970.1956m    555.3244m    -41.0933m      1.0000       1.0000      12.9202m  
   38.81000n    967.6416m    567.7195m    -37.6095m      1.0000       1.0000      14.7510m  
   38.82000n    965.0875m    580.1146m    -34.1258m      1.0000       1.0000      16.5818m  
   38.83000n    962.5503m    592.3491m    -30.6013m      1.0000       1.0000      19.5884m  
   38.84000n    960.2922m    601.9356m    -26.4060m      1.0000       1.0000      41.9867m  
   38.85000n    958.0341m    611.5222m    -22.2106m      1.0000       1.0000      64.3850m  
   38.86000n    955.7760m    621.1087m    -18.0153m      1.0000       1.0000      86.7833m  
   38.87000n    953.5179m    630.6952m    -13.8199m      1.0000       1.0000     109.1815m  
   38.88000n    951.2598m    640.2818m     -9.6246m      1.0000       1.0000     131.5798m  
   38.89000n    949.0016m    649.8683m     -5.4292m      1.0000       1.0000     153.9781m  
   38.90000n    946.7435m    659.4548m     -1.2339m      1.0000       1.0000     176.3764m  
   38.91000n    944.4854m    669.0414m      2.9615m      1.0000       1.0000     198.7747m  
   38.92000n    942.2273m    678.6279m      7.1568m      1.0000       1.0000     221.1730m  
   38.93000n    939.9461m    688.0929m     11.4355m      1.0000       1.0000     244.6210m  
   38.94000n    937.2839m    695.5543m     17.0881m      1.0000       1.0000     285.3813m  
   38.95000n    934.6218m    703.0156m     22.7406m      1.0000       1.0000     326.1415m  
   38.96000n    931.9597m    710.4769m     28.3931m      1.0000       1.0000     366.9018m  
   38.97000n    929.2976m    717.9383m     34.0457m      1.0000       1.0000     407.6621m  
   38.98000n    926.6355m    725.3996m     39.6982m      1.0000       1.0000     448.4224m  
   38.99000n    923.9733m    732.8610m     45.3508m      1.0000       1.0000     489.1826m  
   39.00000n    921.3112m    740.3223m     51.0033m      1.0000       1.0000     529.9429m  
   39.01000n    917.9430m    747.0435m     57.3321m      1.0000       1.0000     578.0767m  
   39.02000n    914.4978m    753.7373m     64.0055m      1.0000       1.0000     626.2105m  
   39.03000n    910.6850m    760.3279m     71.6813m      1.0000       1.0000     668.8131m  
   39.04000n    906.8010m    766.8990m     79.5419m      1.0000       1.0000     710.2642m  
   39.05000n    902.9170m    773.4700m     87.4025m      1.0000       1.0000     751.7152m  
   39.06000n    898.2655m    779.9608m     96.6555m      1.0000       1.0000     782.9963m  
   39.07000n    893.5058m    786.4403m    106.1051m      1.0000       1.0000     812.8419m  
   39.08000n    888.7460m    792.9198m    115.5548m      1.0000       1.0000     842.6874m  
   39.09000n    883.9863m    799.3992m    125.0044m      1.0000       1.0000     872.5329m  
   39.10000n    879.2266m    805.8787m    134.4540m      1.0000       1.0000     902.3784m  
   39.11000n    873.9703m    812.2620m    145.3380m      1.0000       1.0000     919.4313m  
   39.12000n    868.3979m    818.5841m    157.1358m      1.0000       1.0000     928.3357m  
   39.13000n    862.8254m    824.9061m    168.9335m      1.0000       1.0000     937.2402m  
   39.14000n    857.2529m    831.2282m    180.7312m      1.0000       1.0000     946.1446m  
   39.15000n    851.6805m    837.5503m    192.5290m      1.0000       1.0000     955.0490m  
   39.16000n    846.1080m    843.8723m    204.3267m      1.0000       1.0000     963.9535m  
   39.17000n    840.5355m    850.1944m    216.1245m      1.0000       1.0000     972.8579m  
   39.18000n    834.9630m    856.5164m    227.9222m      1.0000       1.0000     981.7623m  
   39.19000n    829.3906m    862.8385m    239.7199m      1.0000       1.0000     990.6667m  
   39.20000n    823.8181m    869.1605m    251.5177m      1.0000       1.0000     999.5712m  
   39.21000n    818.4439m    875.0122m    264.5080m      1.0000       1.0000     999.6569m  
   39.22000n    813.0697m    880.8640m    277.4984m      1.0000       1.0000     999.7427m  
   39.23000n    807.6956m    886.7157m    290.4887m      1.0000       1.0000     999.8285m  
   39.24000n    802.3214m    892.5674m    303.4790m      1.0000       1.0000     999.9142m  
   39.25000n    796.9472m    898.4191m    316.4694m      1.0000       1.0000       1.0000   
   39.26000n    791.6638m    904.2176m    329.8975m      1.0000       1.0000       1.0000   
   39.27000n    786.7490m    909.8072m    343.4596m      1.0000       1.0000       1.0000   
   39.28000n    781.9401m    915.3367m    357.0601m      1.0000       1.0000       1.0000   
   39.29000n    777.1313m    920.8662m    370.6606m      1.0000       1.0000       1.0000   
   39.30000n    772.3224m    926.3958m    384.2612m      1.0000       1.0000       1.0000   
   39.31000n    768.9925m    931.0700m    397.2185m      1.0000       1.0000       1.0000   
   39.32000n    765.8979m    935.6081m    410.0734m      1.0000       1.0000       1.0000   
   39.33000n    762.8034m    940.1462m    422.9283m      1.0000       1.0000       1.0000   
   39.34000n    759.7089m    944.6843m    435.7832m      1.0000       1.0000       1.0000   
   39.35000n    756.6143m    949.2224m    448.6381m      1.0000       1.0000       1.0000   
   39.36000n    753.5198m    953.7605m    461.4929m      1.0000       1.0000       1.0000   
   39.37000n    750.4252m    958.2986m    474.3478m      1.0000       1.0000       1.0000   
   39.38000n    747.3307m    962.8367m    487.2027m      1.0000       1.0000       1.0000   
   39.39000n    744.2362m    967.3748m    500.0576m      1.0000       1.0000       1.0000   
   39.40000n    741.1416m    971.9129m    512.9125m      1.0000       1.0000       1.0000   
   39.41000n    740.4509m    975.1651m    523.9309m      1.0000       1.0000       1.0000   
   39.42000n    740.1429m    978.2126m    534.6570m      1.0000       1.0000       1.0000   
   39.43000n    739.8349m    981.2601m    545.3830m      1.0000       1.0000       1.0000   
   39.44000n    739.5269m    984.3076m    556.1091m      1.0000       1.0000       1.0000   
   39.45000n    739.2189m    987.3551m    566.8351m      1.0000       1.0000       1.0000   
   39.46000n    738.9109m    990.4026m    577.5612m      1.0000       1.0000       1.0000   
   39.47000n    738.6029m    993.4501m    588.2872m      1.0000       1.0000       1.0000   
   39.48000n    738.2949m    996.4976m    599.0133m      1.0000       1.0000       1.0000   
   39.49000n    737.9868m    999.5451m    609.7393m      1.0000       1.0000       1.0000   
   39.50000n    737.6788m      1.0026     620.4654m      1.0000       1.0000       1.0000   
   39.51000n    739.3096m      1.0050     628.9543m      1.0000       1.0000       1.0000   
   39.52000n    741.2491m      1.0073     637.0870m      1.0000       1.0000       1.0000   
   39.53000n    743.1885m      1.0096     645.2198m      1.0000       1.0000       1.0000   
   39.54000n    745.1280m      1.0118     653.3525m      1.0000       1.0000       1.0000   
   39.55000n    747.0674m      1.0141     661.4853m      1.0000       1.0000       1.0000   
   39.56000n    749.0069m      1.0164     669.6180m      1.0000       1.0000       1.0000   
   39.57000n    750.9463m      1.0187     677.7508m      1.0000       1.0000       1.0000   
   39.58000n    752.8858m      1.0210     685.8835m      1.0000       1.0000       1.0000   
   39.59000n    754.8253m      1.0233     694.0163m      1.0000       1.0000       1.0000   
   39.60000n    756.7647m      1.0256     702.1490m      1.0000       1.0000       1.0000   
   39.61000n    753.6885m      1.0282     708.9686m    969.5593m      1.0000       1.0000   
   39.62000n    749.8138m      1.0309     715.5791m    934.2726m      1.0000       1.0000   
   39.63000n    745.9392m      1.0336     722.1895m    898.9860m      1.0000       1.0000   
   39.64000n    742.0645m      1.0363     728.8000m    863.6993m      1.0000       1.0000   
   39.65000n    738.1898m      1.0390     735.4105m    828.4127m      1.0000       1.0000   
   39.66000n    734.3152m      1.0417     742.0210m    793.1260m      1.0000       1.0000   
   39.67000n    730.4405m      1.0444     748.6314m    757.8394m      1.0000       1.0000   
   39.68000n    726.5658m      1.0471     755.2419m    722.5527m      1.0000       1.0000   
   39.69000n    722.6912m      1.0498     761.8524m    687.2661m      1.0000       1.0000   
   39.70000n    718.8165m      1.0525     768.4629m    651.9794m      1.0000       1.0000   
   39.71000n    704.9318m      1.0556     774.7840m    604.0000m      1.0000       1.0000   
   39.72000n    689.4536m      1.0587     781.0591m    554.0000m      1.0000       1.0000   
   39.73000n    673.9754m      1.0618     787.3341m    504.0000m      1.0000       1.0000   
   39.74000n    658.4972m      1.0650     793.6092m    454.0000m      1.0000       1.0000   
   39.75000n    643.0190m      1.0681     799.8842m    404.0000m      1.0000       1.0000   
   39.76000n    627.5408m      1.0712     806.1593m    354.0000m      1.0000       1.0000   
   39.77000n    612.0626m      1.0743     812.4343m    304.0000m      1.0000       1.0000   
   39.78000n    596.5844m      1.0774     818.7094m    254.0000m      1.0000       1.0000   
   39.79000n    575.1442m      1.0804     824.8910m    204.0000m      1.0000       1.0000   
   39.80000n    553.1713m      1.0833     831.0642m    154.0000m      1.0000       1.0000   
   39.81000n    531.1936m      1.0862     837.2306m    104.5907m      1.0000       1.0000   
   39.82000n    508.9910m      1.0886     843.0700m     83.5870m      1.0000       1.0000   
   39.83000n    486.7885m      1.0910     848.9093m     62.5833m      1.0000       1.0000   
   39.84000n    464.5859m      1.0933     854.7487m     41.5796m      1.0000       1.0000   
   39.85000n    442.3833m      1.0957     860.5880m     20.5758m      1.0000       1.0000   
   39.86000n    420.2523m      1.0980     866.4210m      0.           1.0000       1.0000   
   39.87000n    401.5646m      1.0993     871.9486m      0.           1.0000       1.0000   
   39.88000n    382.8769m      1.1006     877.4761m      0.           1.0000       1.0000   
   39.89000n    364.1892m      1.1019     883.0037m      0.           1.0000       1.0000   
   39.90000n    345.5015m      1.1032     888.5312m      0.           1.0000       1.0000   
   39.91000n    326.8138m      1.1045     894.0588m      0.           1.0000       1.0000   
   39.92000n    308.3848m      1.1057     899.5425m      0.           1.0000       1.0000   
   39.93000n    294.2487m      1.1054     904.2981m      0.           1.0000       1.0000   
   39.94000n    280.1126m      1.1052     909.0537m      0.           1.0000       1.0000   
   39.95000n    265.9765m      1.1050     913.8094m      0.           1.0000       1.0000   
   39.96000n    251.8403m      1.1048     918.5650m      0.           1.0000       1.0000   
   39.97000n    237.7042m      1.1046     923.3206m      0.           1.0000       1.0000   
   39.98000n    223.5681m      1.1043     928.0763m      0.           1.0000       1.0000   
   39.99000n    209.5650m      1.1041     932.8135m      0.           1.0000       1.0000   
   40.00000n    198.0388m      1.1029     937.2077m      0.           1.0000       1.0000   
y

          ***** job concluded
1****** HSPICE -- J-2014.09-SP1-2 64-BIT (Jan 29 2015) win64 ******             
 ******  
 ******************** stl ver 2.3 t element basic model ********************

 ****** job statistics summary tnom=  25.000 temp=  25.000 ******

  ******  HSPICE Threads Information  ******

  Command Line Threads Count :     1
  Available CPU Count        :     4
  Actual Threads Count       :     1


  ******  Circuit Statistics  ******
  # nodes       =      11 # elements   =      14
  # resistors   =       4 # capacitors =       2 # inductors   =       0
  # mutual_inds =       0 # vccs       =       0 # vcvs        =       0
  # cccs        =       0 # ccvs       =       0 # volt_srcs   =       2
  # curr_srcs   =       0 # diodes     =       0 # bjts        =       0
  # jfets       =       0 # mosfets    =       0 # U elements  =       0
  # T elements  =       3 # W elements =       3 # B elements  =       0
  # S elements  =       0 # P elements =       0 # va device   =       0
  # vector_srcs =       0 # N elements =       0


  ******  Runtime Statistics (seconds)  ******

  analysis           time    # points   tot. iter  conv.iter
  op point           0.01           1           3
  transient          0.02        2001        1458         729 rev=        46
  readin             0.02
  errchk             0.03
  setup              0.00
  output             0.00


           peak memory used         41.86 megabytes
           total cpu time            0.08 seconds
           total elapsed time        3.14 seconds
           job started at     01:06:06 11/29/2015
           job ended   at     01:06:09 11/29/2015


  lic: Release hspice token(s) 
 lic: total license checkout elapse time:        3.05(s)
