 ****** HSPICE -- F-2011.09-SP2 32-BIT (Feb 27 2012) linux ******               
  Copyright (C) 2011 Synopsys, Inc. All Rights Reserved.                        
  Unpublished-rights reserved under US copyright laws.
  This program is protected by law and is subject to the
  terms and conditions of the license agreement from Synopsys.
  Use of this program is your acceptance to be bound by the
  license agreement. HSPICE is the trademark of Synopsys, Inc.
  Input File: ./template/default.sp                                             
  Command line options: -i ./template/default.sp -o ./template/default
 lic: No 'setenv LM_LICENSE_FILE' in current environment' 
 lic:  
 lic: FLEXlm: v10.8 
 lic: USER:   odaira               HOSTNAME: stl02.islab.cs.tsukuba.ac.jp 
 lic: HOSTID: 003048b92160         PID:      5789 
 lic: Using FLEXlm license file: 
 lic: 1700@vdec-cad1 
 lic: Checkout 1 hspice 
 lic: License/Maintenance for hspice will expire on 31-mar-2016/2014.09 
 lic: 59(in_use)/180(total) FLOATING license(s) on SERVER vdec-cad1 
 lic:   

 **warning** It is recommended that you set start explicitly:
             .TRAN tstep tstop START=val


  **info** (./template/default.sp:27) DC voltage reset to initial transient source value              in source        0:vs1                 new dc=  0.0000D+00
  
      
 *****************************************************************
 ******  option summary
 ******
 runlvl  = 3         bypass  = 2         
1****** HSPICE -- F-2011.09-SP2 32-BIT (Feb 27 2012) linux ******               
 ******  
 ******************************** stl designer 2 t element template ver 2.3 *****

  ******  operating point information tnom=  25.000 temp=  25.000 *****
 ***** operating point status is voltage   simulation time is     0.     
    node    =voltage      node    =voltage      node    =voltage      node    =voltage      node    =voltage

 +0:101     =   0.      0:102     =   0.      0:1001    =   0.      0:1002    =   0.      0:optpt1  =   0.     
 +0:optpt2  =   0.      0:optpt3  =   0.      0:vspt1   =   0.      0:vspt2   =   0.      0:vspt3   =   0.     

 ******  
 ******************************** stl designer 2 t element template ver 2.3 *****

  ******  transient analysis tnom=  25.000 temp=  25.000 *****
x

        time    voltage      voltage      voltage      voltage      voltage      voltage    
                  optpt1       optpt2       optpt3        vspt1        vspt2        vspt3   
   20.00000n    196.8135m      1.1026     963.2902m      0.           1.0000       1.0000   
   20.05000n    146.3107m      1.0936     982.7245m      0.           1.0000       1.0000   
   20.10000n    107.4894m      1.0801     997.9362m      0.           1.0000       1.0000   
   20.15000n     75.0673m      1.0640       1.0116       0.           1.0000       1.0000   
   20.20000n     50.1461m      1.0451       1.0238       0.         965.3951m      1.0000   
   20.25000n     30.7110m      1.0241       1.0348       0.         905.4807m      1.0000   
   20.30000n     14.3133m    999.5473m      1.0467       0.         756.6349m      1.0000   
   20.35000n    137.0381u    972.4021m      1.0592       0.         542.7457m      1.0000   
   20.40000n    -11.2709m    936.5698m      1.0717       0.         347.9438m      1.0000   
   20.45000n    -20.6543m    894.3838m      1.0841       0.         167.1021m      1.0000   
   20.50000n    -25.5581m    841.7063m      1.0935       0.          61.6248m      1.0000   
   20.55000n    -27.1858m    781.3554m      1.1007       0.          11.2681m      1.0000   
   20.60000n    -22.1846m    712.9831m      1.1005       0.           0.           1.0000   
   20.65000n    -15.2725m    642.2985m      1.0981       0.           0.           1.0000   
   20.70000n     -3.8541m    572.2017m      1.0870       0.           0.           1.0000   
   20.75000n      8.8633m    502.2745m      1.0734       0.           0.           1.0000   
   20.80000n     22.4749m    439.6648m      1.0556       0.           0.         972.4364m  
   20.85000n     36.3443m    379.1645m      1.0366       0.           0.         936.9270m  
   20.90000n     50.2883m    328.8804m      1.0132       0.           0.         811.6376m  
   20.95000n     64.2538m    281.5412m    988.5648m      0.           0.         660.4671m  
   21.00000n     79.1390m    241.5515m    961.9784m      0.           0.         460.6123m  
   21.05000n     98.7442m    208.1906m    919.8438m      0.           0.         282.2834m  
   21.10000n    123.7570m    177.4936m    873.9259m      0.           0.         128.2490m  
   21.15000n    152.2874m    148.4566m    817.8753m      0.           0.          45.4859m  
   21.20000n    182.6576m    120.2879m    756.5248m      0.           0.           0.       
   21.25000n    212.7033m     93.4974m    685.8402m      0.           0.           0.       
   21.30000n    235.9071m     69.3037m    615.5877m      0.           0.           0.       
   21.35000n    258.5782m     45.3146m    545.3727m      0.           0.           0.       
   21.40000n    269.5938m     26.4440m    480.8007m      0.           0.           0.       
   21.45000n    279.5969m      8.0180m    416.7190m      0.           0.           0.       
   21.50000n    277.5289m     -5.1382m    363.4411m      0.           0.           0.       
   21.55000n    274.4123m    -17.8365m    311.1018m      0.           0.           0.       
   21.60000n    271.4669m    -28.5453m    269.5367m     53.3561m      0.           0.       
   21.65000n    268.5364m    -39.0812m    228.9077m    111.3476m      0.           0.       
   21.70000n    307.2694m    -52.0926m    197.0906m    346.0000m      0.           0.       
   21.75000n    349.6218m    -65.3191m    166.0390m    596.0000m      0.           0.       
   21.80000n    444.1160m    -78.9340m    137.8741m    792.6439m      0.           0.       
   21.85000n    543.1401m    -92.5827m    109.9599m    984.6524m      0.           0.       
   21.90000n    641.7899m    -99.6530m     84.7925m      1.0000       0.           0.       
   21.95000n    732.2787m   -103.6018m     60.7919m      1.0000       0.           0.       
   22.00000n    797.4169m    -99.5974m     39.6859m      1.0000       0.           0.       
   22.05000n    855.2058m    -92.9640m     20.0963m      1.0000       0.           0.       
   22.10000n    895.3660m    -80.0243m      4.1443m      1.0000       0.           0.       
   22.15000n    926.8056m    -63.9941m     -9.5657m      1.0000      12.0325m      0.       
   22.20000n    951.1441m    -45.4474m    -21.4500m      1.0000      33.8632m      0.       
   22.25000n    970.8568m    -24.2187m    -33.1494m      1.0000     115.4643m      0.       
   22.30000n    986.8028m   -805.9748u    -44.6981m      1.0000     245.7367m      0.       
   22.35000n      1.0007      28.4644m    -57.2592m      1.0000     429.9675m      0.       
   22.40000n      1.0128      62.5047m    -70.6446m      1.0000     658.1368m      0.       
   22.45000n      1.0215     106.6896m    -82.6916m      1.0000     826.5357m      0.       
   22.50000n      1.0272     159.1353m    -93.6487m      1.0000     946.2633m      0.       
   22.55000n      1.0279     219.9812m    -99.3522m      1.0000       1.0000       0.       
   22.60000n      1.0244     287.6674m   -100.7777m      1.0000       1.0000       0.       
   22.65000n      1.0153     358.3745m    -94.9398m      1.0000       1.0000       0.       
   22.70000n      1.0045     430.0196m    -86.8468m      1.0000       1.0000       0.       
   22.75000n    991.5091m    497.3127m    -72.5480m      1.0000       1.0000       9.7627m  
   22.80000n    977.8438m    563.2546m    -56.3223m      1.0000       1.0000      22.5565m  
   22.85000n    964.2286m    620.0867m    -36.1494m      1.0000       1.0000      90.7415m  
   22.90000n    950.6289m    674.0904m    -14.7510m      1.0000       1.0000     176.1242m  
   22.95000n    935.6052m    718.4760m     12.4861m      1.0000       1.0000     335.3855m  
   23.00000n    920.1394m    759.8755m     41.5359m      1.0000       1.0000     517.5845m  
   23.05000n    900.3260m    792.8410m     76.1645m      1.0000       1.0000     742.2877m  
   23.10000n    874.0288m    822.4506m    126.8287m      1.0000       1.0000     872.5111m  
   23.15000n    847.0871m    851.7945m    179.2744m      1.0000       1.0000     992.2386m  
   23.20000n    815.7748m    879.8501m    245.9727m      1.0000       1.0000       1.0000   
   23.25000n    785.7201m    907.1846m    314.2412m      1.0000       1.0000       1.0000   
   23.30000n    760.4494m    932.5463m    385.8862m      1.0000       1.0000       1.0000   
   23.35000n    740.7583m    955.3552m    455.2531m      1.0000       1.0000       1.0000   
   23.40000n    727.1379m    975.3865m    522.1413m      1.0000       1.0000       1.0000   
   23.45000n    720.0435m    992.3879m    583.8075m      1.0000       1.0000       1.0000   
   23.50000n    720.0497m      1.0061     639.7920m      1.0000       1.0000       1.0000   
   23.55000n    725.2936m      1.0183     689.7930m      1.0000       1.0000       1.0000   
   23.60000n    736.2362m      1.0289     733.2837m      1.0000       1.0000       1.0000   
   23.65000n    730.3788m      1.0404     771.2042m    885.9537m      1.0000       1.0000   
   23.70000n    706.2419m      1.0527     803.0639m    647.8178m      1.0000       1.0000   
   23.75000n    650.5593m      1.0661     833.5042m    404.0000m      1.0000       1.0000   
   23.80000n    560.5530m      1.0805     862.4002m    154.0000m      1.0000       1.0000   
   23.85000n    457.2890m      1.0922     889.9211m     53.3203m      1.0000       1.0000   
   23.90000n    351.8327m      1.1025     916.8280m      0.           1.0000       1.0000   
   23.95000n    269.7498m      1.1043     940.7596m      0.           1.0000       1.0000   
   24.00000n    199.7390m      1.1018     962.6314m      0.           1.0000       1.0000   
   24.05000n    146.2967m      1.0934     981.6760m      0.           1.0000       1.0000   
   24.10000n    105.3853m      1.0805     997.3951m      0.           1.0000       1.0000   
   24.15000n     73.7380m      1.0642       1.0107       0.           1.0000       1.0000   
   24.20000n     49.3023m      1.0456       1.0225       0.         980.2866m      1.0000   
   24.25000n     30.1979m      1.0255       1.0334       0.         945.9993m      1.0000   
   24.30000n     13.9004m      1.0022       1.0453       0.         793.5274m      1.0000   
   24.35000n   -321.9156u    976.5089m      1.0579       0.         553.6832m      1.0000   
   24.40000n    -12.2310m    941.8623m      1.0711       0.         336.3199m      1.0000   
   24.45000n    -22.4298m    900.5675m      1.0846       0.         135.5762m      1.0000   
   24.50000n    -27.6989m    846.6546m      1.0949       0.          40.9915m      1.0000   
   24.55000n    -30.1680m    786.1268m      1.1030       0.           0.           1.0000   
   24.60000n    -23.8342m    715.3024m      1.1010       0.           0.           1.0000   
   24.65000n    -17.1377m    644.4344m      1.0984       0.           0.           1.0000   
   24.70000n     -4.4163m    572.8425m      1.0868       0.           0.           1.0000   
   24.75000n      8.5375m    502.9134m      1.0739       0.           0.         997.3286m  
   24.80000n     22.3796m    439.3425m      1.0562       0.           0.         984.4429m  
   24.85000n     36.0397m    378.4952m      1.0375       0.           0.         951.1046m  
   24.90000n     49.0041m    328.0614m      1.0152       0.           0.         839.5660m  
   24.95000n     62.1387m    279.9785m    992.3117m      0.           0.         701.4272m  
   25.00000n     75.9240m    240.8847m    966.6578m      0.           0.         461.5831m  
   25.05000n     94.8984m    207.8792m    925.8493m      0.           0.         260.5452m  
   25.10000n    121.2559m    177.9722m    878.1714m      0.           0.         113.5041m  
   25.15000n    150.5263m    149.0761m    821.9452m      0.           0.          31.0900m  
   25.20000n    182.1098m    120.9827m    758.9303m      0.           0.           0.       
   25.25000n    213.0302m     93.5532m    688.1058m      0.           0.           0.       
   25.30000n    237.0875m     68.6911m    616.7423m      0.           0.           0.       
   25.35000n    260.7611m     43.9780m    545.3457m      0.           0.           0.       
   25.40000n    271.8310m     25.2550m    480.0713m      0.           0.           0.       
   25.45000n    282.5359m      6.7056m    414.9743m      0.           0.           0.       
   25.50000n    279.8941m     -5.4529m    361.6985m      0.           0.           0.       
   25.55000n    276.8657m    -17.4263m    308.7651m      0.           0.           0.       
   25.60000n    272.4208m    -27.3470m    268.2193m     50.0683m      0.           0.       
   25.65000n    267.9349m    -37.2083m    228.0322m    101.5866m      0.           0.       
   25.70000n    306.6604m    -50.9733m    197.1357m    346.0000m      0.           0.       
   25.75000n    346.6373m    -64.8513m    166.5083m    596.0000m      0.           0.       
   25.80000n    443.9081m    -79.6262m    138.4115m    795.9318m      0.           0.       
   25.85000n    542.8382m    -94.4270m    110.3880m    994.4134m      0.           0.       
   25.90000n    642.9462m   -101.8319m     84.6156m      1.0000       0.           0.       
   25.95000n    733.1414m   -105.8740m     60.1168m      1.0000       0.           0.       
   26.00000n    799.5167m   -102.3759m     38.5119m      1.0000       0.           0.       
   26.05000n    855.6829m    -95.1475m     19.1650m      1.0000       0.           0.       
   26.10000n    896.5958m    -82.3457m      3.1919m      1.0000       0.           0.       
   26.15000n    926.2737m    -65.4014m     -9.5654m      1.0000      11.8379m      0.       
   26.20000n    950.7294m    -46.5316m    -20.8279m      1.0000      29.1783m      0.       
   26.25000n    969.5919m    -24.4837m    -32.0567m      1.0000     115.4586m      0.       
   26.30000n    985.8547m   -958.6138u    -43.2700m      1.0000     233.7831m      0.       
   26.35000n      1.0001      29.0785m    -56.5145m      1.0000     430.1621m      0.       
   26.40000n      1.0134      62.1426m    -70.7031m      1.0000     662.8217m      0.       
   26.45000n      1.0224     107.3273m    -83.5610m      1.0000     826.5414m      0.       
   26.50000n      1.0294     158.1459m    -95.8004m      1.0000     958.2169m      0.       
   26.55000n      1.0296     219.8572m   -101.4524m      1.0000       1.0000       0.       
   26.60000n      1.0267     286.6314m   -104.0424m      1.0000       1.0000       0.       
   26.65000n      1.0166     358.2532m    -97.3308m      1.0000       1.0000       0.       
   26.70000n      1.0058     430.2976m    -89.8082m      1.0000       1.0000       0.       
   26.75000n    991.9156m    498.0517m    -74.3152m      1.0000       1.0000       8.9005m  
   26.80000n    977.7239m    565.4318m    -58.1272m      1.0000       1.0000      18.5771m  
   26.85000n    963.6460m    621.1630m    -36.8046m      1.0000       1.0000      89.6550m  
   26.90000n    949.5693m    676.7705m    -15.4275m      1.0000       1.0000     161.3844m  
   26.95000n    934.1456m    718.4909m     13.1357m      1.0000       1.0000     339.8775m  
   27.00000n    918.7076m    760.0640m     41.7751m      1.0000       1.0000     519.5034m  
   27.05000n    898.1385m    790.2792m     76.0231m      1.0000       1.0000     745.4293m  
   27.10000n    874.5008m    820.0426m    126.8417m      1.0000       1.0000     877.1048m  
   27.15000n    845.8404m    849.0388m    180.5162m      1.0000       1.0000     985.2115m  
   27.20000n    815.1581m    877.6080m    245.4985m      1.0000       1.0000       1.0000   
   27.25000n    784.8372m    905.6227m    313.8738m      1.0000       1.0000       1.0000   
   27.30000n    760.5050m    931.0620m    385.0905m      1.0000       1.0000       1.0000   
   27.35000n    739.7412m    954.9229m    455.4752m      1.0000       1.0000       1.0000   
   27.40000n    727.1630m    974.9339m    521.1605m      1.0000       1.0000       1.0000   
   27.45000n    719.1146m    992.8145m    584.2451m      1.0000       1.0000       1.0000   
   27.50000n    719.6148m      1.0071     639.2197m      1.0000       1.0000       1.0000   
   27.55000n    724.8455m      1.0194     689.7065m      1.0000       1.0000       1.0000   
   27.60000n    726.0438m      1.0305     731.7488m    940.4329m      1.0000       1.0000   
   27.65000n    725.0107m      1.0410     769.1180m    847.9030m      1.0000       1.0000   
   27.70000n    691.3424m      1.0531     801.4482m    654.0000m      1.0000       1.0000   
   27.75000n    639.6147m      1.0661     830.9898m    404.0000m      1.0000       1.0000   
   27.80000n    556.1393m      1.0793     859.8379m    213.5671m      1.0000       1.0000   
   27.85000n    455.0957m      1.0925     888.3021m     56.0970m      1.0000       1.0000   
   27.90000n    358.5470m      1.1007     914.7857m      0.           1.0000       1.0000   
   27.95000n    264.4857m      1.1061     940.1734m      0.           1.0000       1.0000   
   28.00000n    202.5027m      1.1006     961.0184m      0.           1.0000       1.0000   
   28.05000n    141.6320m      1.0947     981.7060m      0.           1.0000       1.0000   
   28.10000n    104.6009m      1.0803     996.9897m      0.           1.0000       1.0000   
   28.15000n     69.8437m      1.0650       1.0117       0.         995.7591m      1.0000   
   28.20000n     48.3094m      1.0447       1.0232       0.         952.7743m      1.0000   
   28.25000n     27.4654m      1.0239       1.0346       0.         897.6841m      1.0000   
   28.30000n     12.9274m    998.0447m      1.0463       0.         732.0015m      1.0000   
   28.35000n     -1.2524m    971.0158m      1.0581       0.         562.2409m      1.0000   
   28.40000n    -12.1600m    933.3669m      1.0712       0.         355.2257m      1.0000   
   28.45000n    -22.3754m    893.9385m      1.0840       0.         160.3159m      1.0000   
   28.50000n    -26.2670m    838.2523m      1.0936       0.          75.9985m      1.0000   
   28.55000n    -29.1955m    781.2373m      1.1021       0.           0.           1.0000   
   28.60000n    -23.3243m    712.0826m      1.1006       0.           0.           1.0000   
   28.65000n    -16.3436m    642.6430m      1.0975       0.           0.           1.0000   
   28.70000n     -3.8852m    571.7971m      1.0864       0.           0.           1.0000   
   28.75000n      8.8602m    502.2467m      1.0740       0.           0.         995.2425m  
   28.80000n     23.0226m    439.0928m      1.0556       0.           0.         966.9966m  
   28.85000n     37.1837m    378.1013m      1.0363       0.           0.         922.6882m  
   28.90000n     51.3380m    327.7861m      1.0124       0.           0.         799.0768m  
   28.95000n     65.7566m    279.2742m    987.2922m      0.           0.         665.5036m  
   29.00000n     81.4800m    239.6658m    956.5586m      0.           0.         482.7471m  
   29.05000n    101.0621m    206.2809m    918.4883m      0.           0.         278.5984m  
   29.10000n    126.1135m    176.4945m    868.5018m      0.           0.         155.5098m  
   29.15000n    152.5430m    147.2832m    815.4119m      0.           0.          52.7417m  
   29.20000n    182.3653m    119.4878m    754.6819m      0.           0.           0.       
   29.25000n    212.0305m     92.3805m    685.5216m      0.           0.           0.       
   29.30000n    235.9173m     67.6256m    615.0961m      0.           0.           0.       
   29.35000n    257.6061m     43.8943m    545.5720m      0.           0.           0.       
   29.40000n    269.7085m     24.6279m    479.9795m      0.           0.           0.       
   29.45000n    279.3165m      6.4761m    416.4771m      0.           0.           0.       
   29.50000n    278.0456m     -6.8138m    362.0915m      0.           0.           0.       
   29.55000n    275.5984m    -19.5814m    309.9179m      4.6042m      0.           0.       
   29.60000n    268.0206m    -30.0710m    267.3926m     29.2906m      0.           0.       
   29.65000n    268.0077m    -40.8694m    226.9994m     96.0000m      0.           0.       
   29.70000n    300.9908m    -53.0144m    195.9061m    346.0000m      0.           0.       
   29.75000n    346.4096m    -65.4438m    165.3223m    595.9381m      0.           0.       
   29.80000n    446.0689m    -79.1143m    136.9610m    845.6063m      0.           0.       
   29.85000n    548.3346m    -90.9370m    109.4543m      1.0000       0.           0.       
   29.90000n    654.8237m    -99.7653m     83.3324m      1.0000       0.           0.       
   29.95000n    739.3852m   -102.5979m     59.2168m      1.0000       0.           0.       
   30.00000n    810.5286m   -101.5613m     36.4960m      1.0000       0.           0.       
   30.05000n    860.3234m    -92.8898m     17.2296m      1.0000       0.           0.       
   30.10000n    899.1788m    -80.0460m      1.4051m      1.0000       0.           0.       
   30.15000n    930.0507m    -64.1573m    -11.9075m      1.0000       0.           0.       
   30.20000n    953.6187m    -45.9096m    -23.5943m      1.0000      14.2172m      0.       
   30.25000n    971.8564m    -25.9403m    -34.0946m      1.0000      38.8098m      0.       
   30.30000n    987.3689m     -2.8989m    -45.5420m      1.0000     193.2173m      0.       
   30.35000n      1.0009      22.3843m    -57.6807m      1.0000     442.3612m      0.       
   30.40000n      1.0126      56.8342m    -70.7012m      1.0000     691.8090m      0.       
   30.45000n      1.0231      97.9738m    -84.3652m      1.0000     941.4785m      0.       
   30.50000n      1.0281     154.4971m    -94.3126m      1.0000     999.2561m      0.       
   30.55000n      1.0304     216.9057m   -102.1242m      1.0000       1.0000       0.       
   30.60000n      1.0253     289.0132m   -102.3493m      1.0000       1.0000       0.       
   30.65000n      1.0168     362.0428m    -97.7919m      1.0000       1.0000       0.       
   30.70000n      1.0054     435.0374m    -88.6596m      1.0000       1.0000       0.       
   30.75000n    991.5461m    503.4205m    -73.4009m      1.0000       1.0000       0.       
   30.80000n    977.8307m    570.2214m    -57.5470m      1.0000       1.0000       3.0679m  
   30.85000n    964.8864m    627.0282m    -37.9339m      1.0000       1.0000      25.5139m  
   30.90000n    951.9244m    681.8038m    -17.6051m      1.0000       1.0000      76.4369m  
   30.95000n    938.8499m    723.7496m      7.2440m      1.0000       1.0000     307.2347m  
   31.00000n    925.7755m    765.6954m     32.0931m      1.0000       1.0000     538.0324m  
   31.05000n    903.5702m    796.2982m     72.6318m      1.0000       1.0000     787.6821m  
   31.10000n    877.4188m    825.2711m    116.8672m      1.0000       1.0000     998.7355m  
   31.15000n    845.2559m    853.1138m    177.9548m      1.0000       1.0000     999.5807m  
   31.20000n    811.6854m    880.9769m    244.5950m      1.0000       1.0000       1.0000   
   31.25000n    780.4028m    908.1155m    316.8713m      1.0000       1.0000       1.0000   
   31.30000n    755.3591m    933.1540m    389.3344m      1.0000       1.0000       1.0000   
   31.35000n    733.2667m    957.0360m    461.0451m      1.0000       1.0000       1.0000   
   31.40000n    722.5583m    975.9009m    527.0183m      1.0000       1.0000       1.0000   
   31.45000n    713.2793m    994.0487m    591.7125m      1.0000       1.0000       1.0000   
   31.50000n    716.2707m      1.0060     645.4255m      1.0000       1.0000       1.0000   
   31.55000n    719.7596m      1.0177     697.7458m    996.3528m      1.0000       1.0000   
   31.60000n    727.5205m      1.0270     738.1090m    961.3939m      1.0000       1.0000   
   31.65000n    730.8818m      1.0368     777.3282m    904.0000m      1.0000       1.0000   
   31.70000n    696.4718m      1.0508     806.7266m    654.0000m      1.0000       1.0000   
   31.75000n    655.3014m      1.0650     835.9590m    406.1015m      1.0000       1.0000   
   31.80000n    556.0926m      1.0812     863.7666m    176.2446m      1.0000       1.0000   
   31.85000n    455.6389m      1.0957     891.1824m      0.           1.0000       1.0000   
   31.90000n    351.0925m      1.1045     917.3107m      0.           1.0000       1.0000   
   31.95000n    264.3726m      1.1074     941.4350m      0.           1.0000       1.0000   
   32.00000n    193.1205m      1.1052     963.8206m      0.           1.0000       1.0000   
   32.05000n    143.1612m      1.0950     982.3707m      0.           1.0000       1.0000   
   32.10000n    101.6944m      1.0818     998.5747m      0.         998.9840m      1.0000   
   32.15000n     73.6636m      1.0638       1.0103       0.         995.3904m      1.0000   
   32.20000n     48.7336m      1.0447       1.0214       0.         976.6786m      1.0000   
   32.25000n     31.6698m      1.0226       1.0312       0.         919.6146m      1.0000   
   32.30000n     15.1729m    998.8173m      1.0422       0.         808.5854m      1.0000   
   32.35000n    114.3981u    970.5093m      1.0564       0.         560.6560m      1.0000   
   32.40000n    -13.6971m    937.5710m      1.0708       0.         328.7061m      1.0000   
   32.45000n    -24.3453m    892.8860m      1.0858       0.         137.2930m      1.0000   
   32.50000n    -32.0694m    842.9177m      1.0985       0.           0.           1.0000   
   32.55000n    -32.3759m    779.5460m      1.1054       0.           0.           1.0000   
   32.60000n    -26.6992m    710.6693m      1.1049       0.           0.           1.0000   
   32.65000n    -17.5281m    638.5774m      1.1000       0.           0.           1.0000   
   32.70000n     -4.8708m    567.1856m      1.0889       0.           0.         999.0636m  
   32.75000n      9.3339m    496.5207m      1.0748       0.           0.         996.7745m  
   32.80000n     23.9300m    433.7832m      1.0556       0.           0.         976.7012m  
   32.85000n     38.4803m    371.7542m      1.0361       0.           0.         951.8051m  
   32.90000n     52.1642m    323.0918m      1.0121       0.           0.         835.9159m  
   32.95000n     65.8873m    275.0453m    987.9470m      0.           0.         713.3806m  
   33.00000n     80.3489m    238.6189m    959.6391m      0.           0.         465.4512m  
   33.05000n     98.4327m    208.5594m    920.4119m      0.           0.         255.2035m  
   33.10000n    123.1719m    179.6222m    875.7270m      0.           0.          63.7904m  
   33.15000n    152.8859m    150.8071m    817.4335m      0.           0.          11.7737m  
   33.20000n    184.8893m    121.6983m    755.0780m      0.           0.           0.       
   33.25000n    215.4950m     93.1751m    682.9860m      0.           0.           0.       
   33.30000n    242.5412m     65.9598m    611.0961m      0.           0.           0.       
   33.35000n    260.7330m     42.9246m    541.4825m      0.           0.           0.       
   33.40000n    277.7654m     20.4910m    472.6320m      0.           0.           0.       
   33.45000n    281.7374m      4.8337m    412.3774m      0.           0.           0.       
   33.50000n    284.6230m    -10.3682m    353.2438m      0.           0.           0.       
   33.55000n    275.2715m    -20.4400m    306.7399m      0.           0.           0.       
   33.60000n    267.5445m    -30.5528m    261.4094m     13.2737m      0.           0.       
   33.65000n    278.1173m    -41.1265m    229.2991m    176.0825m      0.           0.       
   33.70000n    293.6378m    -52.0257m    197.4541m    346.0000m      0.           0.       
   33.75000n    364.8954m    -66.5909m    168.5979m    596.0000m      0.           0.       
   33.80000n    440.8714m    -80.7582m    139.7685m    823.3407m      0.           0.       
   33.85000n    544.3404m    -92.6066m    111.0956m    918.6510m      0.           0.       
   33.90000n    645.0464m   -103.0455m     82.9784m      1.0000       0.           0.       
   33.95000n    729.6533m   -105.2716m     58.0991m      1.0000       0.           0.       
   34.00000n    799.8351m   -102.4968m     35.7974m      1.0000       0.           0.       
   34.05000n    853.4859m    -93.9910m     16.4495m      1.0000       0.           0.       
   34.10000n    896.2861m    -81.4584m    122.1132u      1.0000       0.           0.       
   34.15000n    926.6516m    -64.3114m    -12.7437m      1.0000       0.           0.       
   34.20000n    951.3129m    -44.7871m    -24.4245m      1.0000      37.9160m      0.       
   34.25000n    969.4373m    -22.5386m    -34.7472m      1.0000     119.2833m      0.       
   34.30000n    985.6288m      2.7297m    -46.1164m      1.0000     258.9068m      0.       
   34.35000n    999.6054m     31.4585m    -58.6850m      1.0000     465.2913m      0.       
   34.40000n      1.0116      66.7653m    -71.5102m      1.0000     653.6339m      0.       
   34.45000n      1.0213     109.6105m    -84.6293m      1.0000     821.3005m      0.       
   34.50000n      1.0270     160.6297m    -94.8758m      1.0000     932.6603m      0.       
   34.55000n      1.0280     221.0163m   -101.8300m      1.0000     979.4930m      0.       
   34.60000n      1.0237     287.1420m   -102.2418m      1.0000       1.0000       0.       
   34.65000n      1.0154     357.7382m    -97.5573m      1.0000       1.0000       0.       
   34.70000n      1.0041     427.8181m    -87.5969m      1.0000       1.0000       0.       
   34.75000n    990.3734m    497.4958m    -73.5267m      1.0000       1.0000       0.       
   34.80000n    976.2739m    561.6940m    -55.8803m      1.0000       1.0000      29.4524m  
   34.85000n    961.8502m    621.6237m    -35.4483m      1.0000       1.0000      81.8474m  
   34.90000n    947.3236m    673.6171m    -11.6495m      1.0000       1.0000     195.7806m  
   34.95000n    932.7167m    719.4283m     14.7719m      1.0000       1.0000     357.6504m  
   35.00000n    917.4773m    760.0127m     42.4903m      1.0000       1.0000     544.5430m  
   35.05000n    898.6022m    792.4598m     83.2179m      1.0000       1.0000     718.0179m  
   35.10000n    874.2864m    822.4312m    131.5410m      1.0000       1.0000     847.9495m  
   35.15000n    847.0023m    851.3280m    186.7148m      1.0000       1.0000     930.6908m  
   35.20000n    818.0317m    879.8362m    244.2047m      1.0000       1.0000     997.4767m  
   35.25000n    788.4368m    907.0701m    314.2509m      1.0000       1.0000       1.0000   
   35.30000n    764.0838m    932.1214m    384.5206m      1.0000       1.0000       1.0000   
   35.35000n    743.4548m    955.5348m    454.4469m      1.0000       1.0000       1.0000   
   35.40000n    729.1681m    975.9499m    520.7859m      1.0000       1.0000       1.0000   
   35.45000n    721.5467m    993.2139m    583.3547m      1.0000       1.0000       1.0000   
   35.50000n    720.4199m      1.0078     639.6165m      1.0000       1.0000       1.0000   
   35.55000n    726.1184m      1.0196     689.2500m      1.0000       1.0000       1.0000   
   35.60000n    726.9341m      1.0308     732.8658m    945.3654m      1.0000       1.0000   
   35.65000n    722.6180m      1.0413     770.1574m    833.3130m      1.0000       1.0000   
   35.70000n    692.3824m      1.0529     803.6666m    654.0000m      1.0000       1.0000   
   35.75000n    634.9067m      1.0655     833.2009m    404.0000m      1.0000       1.0000   
   35.80000n    556.2001m      1.0777     861.9820m    208.6346m      1.0000       1.0000   
   35.85000n    455.1811m      1.0894     889.9715m     70.6870m      1.0000       1.0000   
   35.90000n    359.2706m      1.0977     916.3022m      0.           1.0000       1.0000   
   35.95000n    268.7288m      1.1022     940.8895m      0.           1.0000       1.0000   
   36.00000n    203.9744m      1.0984     961.8815m      0.           1.0000       1.0000   
   36.05000n    145.2569m      1.0927     982.0318m      0.           1.0000       1.0000   
   36.10000n    106.1667m      1.0796     997.5397m      0.           1.0000       1.0000   
   36.15000n     71.6713m      1.0649       1.0120       0.           1.0000       1.0000   
   36.20000n     49.2512m      1.0453       1.0236       0.         951.2747m      1.0000   
   36.25000n     28.8260m      1.0248       1.0347       0.         894.5003m      1.0000   
   36.30000n     13.9233m    998.8579m      1.0463       0.         730.2992m      1.0000   
   36.35000n    -67.0503u    971.9995m      1.0579       0.         548.3519m      1.0000   
   36.40000n    -10.4643m    933.6952m      1.0700       0.         356.7253m      1.0000   
   36.45000n    -20.2680m    893.5002m      1.0821       0.         163.4997m      1.0000   
   36.50000n    -24.0029m    837.8137m      1.0908       0.          77.7008m      1.0000   
   36.55000n    -26.7353m    779.5681m      1.0989       0.           9.6481m      1.0000   
   36.60000n    -21.8045m    711.3092m      1.0980       0.           0.           1.0000   
   36.65000n    -15.6078m    641.3962m      1.0957       0.           0.           1.0000   
   36.70000n     -4.1756m    571.4697m      1.0853       0.           0.           1.0000   
   36.75000n      8.1215m    501.5410m      1.0736       0.           0.           1.0000   
   36.80000n     21.8028m    439.0637m      1.0558       0.           0.         966.2821m  
   36.85000n     35.7127m    377.8173m      1.0372       0.           0.         926.9942m  
   36.90000n     50.0919m    327.7573m      1.0131       0.           0.         798.3597m  
   36.95000n     64.5486m    279.5452m    988.2645m      0.           0.         654.9657m  
   37.00000n     80.5153m    239.4711m    958.4554m      0.           0.         475.7523m  
   37.05000n    100.8401m    205.8078m    917.3443m      0.           0.         288.8788m  
   37.10000n    125.7066m    175.4958m    869.3372m      0.           0.         149.8269m  
   37.15000n    153.3216m    146.7880m    814.4161m      0.           0.          57.5837m  
   37.20000n    182.9716m    119.2678m    754.3756m      0.           0.           0.       
   37.25000n    212.4584m     93.0104m    684.4626m      0.           0.           0.       
   37.30000n    235.4663m     69.1294m    614.5400m      0.           0.           0.       
   37.35000n    258.0899m     45.3925m    544.6168m      0.           0.           0.       
   37.40000n    269.0523m     26.6645m    480.0302m      0.           0.           0.       
   37.45000n    279.5119m      8.1524m    415.6736m      0.           0.           0.       
   37.50000n    277.4616m     -5.1859m    362.3181m      0.           0.           0.       
   37.55000n    274.8719m    -18.3011m    309.4369m      0.           0.           0.       
   37.60000n    271.5301m    -29.4735m    267.6515m     50.9691m      0.           0.       
   37.65000n    268.1557m    -40.5622m    226.3446m    104.1357m      0.           0.       
   37.70000n    307.1172m    -53.4314m    194.9022m    346.0000m      0.           0.       
   37.75000n    347.9039m    -66.3773m    163.8852m    596.0000m      0.           0.       
   37.80000n    443.8773m    -79.3293m    136.4284m    795.0309m      0.           0.       
   37.85000n    542.2301m    -92.2815m    109.1252m    991.8643m      0.           0.       
   37.90000n    641.3139m    -99.0085m     84.3895m      1.0000       0.           0.       
   37.95000n    731.1173m   -102.6538m     60.7609m      1.0000       0.           0.       
   38.00000n    797.1408m    -99.1148m     39.6770m      1.0000       0.           0.       
   38.05000n    853.9386m    -92.3048m     20.3674m      1.0000       0.           0.       
   38.10000n    895.3184m    -80.0286m      4.0234m      1.0000       0.           0.       
   38.15000n    926.2975m    -63.9832m     -9.7659m      1.0000      11.9686m      0.       
   38.20000n    951.6745m    -45.9076m    -22.1792m      1.0000      30.3839m      0.       
   38.25000n    971.1848m    -24.6157m    -34.1497m      1.0000     115.6953m      0.       
   38.30000n    987.5350m     -1.5915m    -45.8816m      1.0000     237.0388m      0.       
   38.35000n      1.0010      28.2418m    -58.4040m      1.0000     430.0314m      0.       
   38.40000n      1.0129      61.7426m    -71.3521m      1.0000     661.6161m      0.       
   38.45000n      1.0209     107.1348m    -82.8411m      1.0000     826.3047m      0.       
   38.50000n      1.0267     158.9322m    -93.5441m      1.0000     954.9612m      0.       
   38.55000n      1.0268     220.7546m    -98.6076m      1.0000       1.0000       0.       
   38.60000n      1.0239     287.9768m   -100.6334m      1.0000       1.0000       0.       
   38.65000n      1.0146     359.0035m    -94.3790m      1.0000       1.0000       0.       
   38.70000n      1.0045     430.5433m    -87.0078m      1.0000       1.0000       0.       
   38.75000n    991.4770m    497.4606m    -72.4225m      1.0000       1.0000       9.1832m  
   38.80000n    978.1116m    563.7543m    -56.8641m      1.0000       1.0000      19.6052m  
   38.85000n    964.5885m    619.4911m    -36.4266m      1.0000       1.0000      90.2849m  
   38.90000n    951.0534m    674.4247m    -15.6178m      1.0000       1.0000     165.5492m  
   38.95000n    935.6413m    717.5490m     12.4674m      1.0000       1.0000     338.5369m  
   39.00000n    920.0865m    759.7747m     41.1061m      1.0000       1.0000     518.9599m  
   39.05000n    898.7298m    791.5617m     75.2277m      1.0000       1.0000     747.0523m  
   39.10000n    874.4180m    822.3521m    127.0250m      1.0000       1.0000     875.7088m  
   39.15000n    845.1798m    851.4254m    180.7621m      1.0000       1.0000     988.1859m  
   39.20000n    814.1697m    879.5246m    246.5679m      1.0000       1.0000       1.0000   
   39.25000n    784.0994m    906.7794m    314.9349m      1.0000       1.0000       1.0000   
   39.30000n    760.3039m    931.4262m    385.5902m      1.0000       1.0000       1.0000   
   39.35000n    739.9298m    954.6207m    455.4679m      1.0000       1.0000       1.0000   
   39.40000n    728.0335m    973.9530m    520.4707m      1.0000       1.0000       1.0000   
   39.45000n    720.1725m    991.4472m    583.1531m      1.0000       1.0000       1.0000   
   39.50000n    720.8268m      1.0054     637.8487m      1.0000       1.0000       1.0000   
   39.55000n    725.5342m      1.0178     688.7425m      1.0000       1.0000       1.0000   
   39.60000n    726.0621m      1.0292     731.2654m    940.1682m      1.0000       1.0000   
   39.65000n    724.6005m      1.0402     769.8037m    851.8574m      1.0000       1.0000   
   39.70000n    689.6304m      1.0530     802.7852m    654.0000m      1.0000       1.0000   
   39.75000n    638.7108m      1.0666     833.1217m    404.0000m      1.0000       1.0000   
   39.80000n    554.4020m      1.0800     861.8717m    213.8318m      1.0000       1.0000   
   39.85000n    454.2005m      1.0934     889.8665m     52.1426m      1.0000       1.0000   
   39.90000n    358.2402m      1.1011     915.6308m      0.           1.0000       1.0000   
   39.95000n    264.3049m      1.1062     940.3328m      0.           1.0000       1.0000   
   40.00000n    196.3314m      1.1027     963.1767m      0.           1.0000       1.0000   
y

          ***** job concluded
1****** HSPICE -- F-2011.09-SP2 32-BIT (Feb 27 2012) linux ******               
 ******  
 ******************************** stl designer 2 t element template ver 2.3 *****

  ******  job statistics summary tnom=  25.000 temp=  25.000 *****
  
  
 ******  Machine Information  ******
 CPU:
 model name	: Intel(R) Xeon(R) CPU           W3520  @ 2.67GHz
 cpu MHz	: 2660.070
  
 OS:
 Linux version 2.6.18-371.8.1.el5xen (mockbuild@builder10.centos.org) (gcc versi
 on 4.1.2 20080704 (Red Hat 4.1.2-54)) #1 SMP Thu Apr 24 19:03:10 EDT 2014


  ******  HSPICE Threads Information  ******

  Command Line Threads Count :     1
  Available CPU Count        :     4
  Actual Threads Count       :     1


  ******  Circuit Statistics  ******
  # nodes       =      11 # elements   =      14
  # resistors   =       4 # capacitors =       2 # inductors   =       0
  # mutual_inds =       0 # vccs       =       0 # vcvs        =       0
  # cccs        =       0 # ccvs       =       0 # volt_srcs   =       2
  # curr_srcs   =       0 # diodes     =       0 # bjts        =       0
  # jfets       =       0 # mosfets    =       0 # U elements  =       0
  # T elements  =       6 # W elements =       0 # B elements  =       0
  # S elements  =       0 # P elements =       0 # va device   =       0
  # vector_srcs =       0


  ******  Runtime Statistics (seconds)  ******

  analysis           time    # points   tot. iter  conv.iter
  op point           0.00           1           3
  transient          0.01         401        1144         572 rev=        30
  readin             0.00
  errchk             0.00
  setup              0.00
  output             0.00


           peak memory used         88.17 megabytes
           total cpu time            0.01 seconds
           total elapsed time        0.61 seconds
           job started at     13:54:00 10/17/2015
           job ended   at     13:54:01 10/17/2015


 lic: Release hspice token(s) 
